
?              Welcome to ANSYS Fluent Release 19.2??              Copyright 1987-2018 ANSYS, Inc. All Rights Reserved.?              Unauthorized use, distribution or duplication is prohibited.?              This product is subject to U.S. laws governing export and re-export.?              For full Legal Notice, see documentation.??Build Time: Aug  8 2018 13:42:39  Build Id: 10236  ? ??     --------------------------------------------------------------?     This is an academic version of ANSYS FLUENT. Usage of this product?     license is limited to the terms and conditions specified in your ANSYS?     license form, additional terms section.?     --------------------------------------------------------------?Host spawning Node 0 on machine "DB-LIB-31-7" (win64).?WARNING: No cached password or password provided.?         use '-pass' or '-cache' to provide password?Host 0 -- ip 155.31.94.235 -- ranks 0 - 3?? host | 0?======|======?    0 : SHM?? Prot -  All Intra-node communication is: SHM???-------------------------------------------------------------------------------?ID    Hostname     Core  O.S.         PID    Vendor                    ?-------------------------------------------------------------------------------?n3    DB-LIB-31-7  4/8  Windows-x64  1896   Intel(R) Core(TM) i7-7700 ?n2    DB-LIB-31-7  3/8  Windows-x64  11104  Intel(R) Core(TM) i7-7700 ?n1    DB-LIB-31-7  2/8  Windows-x64  1028   Intel(R) Core(TM) i7-7700 ?n0*   DB-LIB-31-7  1/8  Windows-x64  12048  Intel(R) Core(TM) i7-7700 ?host  DB-LIB-31-7       Windows-x64  10032  Intel(R) Core(TM) i7-7700 ??MPI Option Selected: ibmmpi?Selected system interconnect: default?-------------------------------------------------------------------------------??Cleanup script file is P:\AE516\Project_1\Fluent\ZERO_LIFT\cleanup-fluent-DB-LIB-31-7-10032.bat?? +------------------------------------------------------------------+? |                    ANSYS Product Improvement                     |? |                                                                  |? |   ANSYS Product Improvement Program helps improve ANSYS          |? |   products. Participating in this program is like filling out a  |? |   survey. Without interrupting your work, the software reports   |? |   anonymous usage information such as errors, machine and        |? |   solver statistics, features used, etc. to ANSYS. We never      |? |   use the data to identify or contact you.                       |? |   The data does NOT contain:                                     |? |   - Any personally identifiable information including names,     |? |     IP addresses, file names, part names, etc.                   |? |   - Any information about your geometry or design specific       |? |     inputs.                                                      |? |   You can stop participation at any time. To change your         |? |   selection go to Help >> ANSYS Product Improvement Program      |? |   in the GUI.                                                    |? |   For more information about the ANSYS Privacy Policy, please    |? |   check: http://www.ansys.com/privacy                            |? |                                                                  |? +------------------------------------------------------------------+??Reading journal file _read_fluent_case_.jou...??> ;Journal file automatically created by Fluent!?/file read-case P:\AE516\Project_1\Fluent\ZERO_LIFT\NACA2408_ZLFT_N2_2DEG.cas?Multicore SMT processors detected. Processor affinity set!??Reading "P:\AE516\Project_1\Fluent\ZERO_LIFT\NACA2408_ZLFT_N2_2DEG.cas"...??Buffering for file scan...??    5530 nodes.?   10638 triangular cells, zone  2.?   15746 2D interior faces, zone  3.?     306 2D wall faces, zone  4.?      29 2D pressure-outlet faces, zone  5.?      29 2D velocity-inlet faces, zone  6.?      58 2D symmetry faces, zone  7.??Building...?     mesh?	auto partitioning mesh by Metis (fast),?	distributing mesh?		parts....,?		faces....,?		nodes....,?		cells....,?        bandwidth reduction using Reverse Cuthill-McKee: 2654/100 = 26.54?     materials,?     interface,?     domains,?     zones,?	tunnel?	inlet?	exit?	airfoil?	interior-unspecified?	unspecified?     parallel,?Done.??> ?> ? Domain Extents:?   x-coordinate: min (m) = -1.000000e+01, max (m) = 1.000000e+01?   y-coordinate: min (m) = -1.000000e+01, max (m) = 1.000000e+01? Volume statistics:?   minimum volume (m3): 3.307909e-09?   maximum volume (m3): 2.966276e-01?     total volume (m3): 3.999452e+02? Face area statistics:?   minimum face area (m2): 7.367754e-05?   maximum face area (m2): 8.938617e-01? Checking mesh....................................?Done.???  iter  continuity  x-velocity  y-velocity           k       omega   drag-coef  drag-force   lift-coef  lift-force  moment-coe      moment     time/iter?readReportDefinitionDataFromFile done?readReportDefinitionDataFromFile done?readReportDefinitionDataFromFile done?readReportDefinitionDataFromFile done?readReportDefinitionDataFromFile done?readReportDefinitionDataFromFile done?readReportDefinitionDataFromFile done?readReportDefinitionDataFromFile done?readReportDefinitionDataFromFile done?readReportDefinitionDataFromFile done?readReportDefinitionDataFromFile done?readReportDefinitionDataFromFile done?readReportDefinitionDataFromFile done?readReportDefinitionDataFromFile done?readReportDefinitionDataFromFile done?readReportDefinitionDataFromFile done?readReportDefinitionDataFromFile done?readReportDefinitionDataFromFile done?readReportDefinitionDataFromFile done?readReportDefinitionDataFromFile done?readReportDefinitionDataFromFile done?    10  6.9197e-02  4.1543e-05  2.6835e-05  8.9339e-03  9.7853e-03  1.4862e-02  2.9101e+00 -1.1414e-02 -2.2349e+00  4.7442e-02  9.2897e+00  0:05:24  990?    20  3.4080e-02  2.7960e-05  1.3355e-05  1.4781e-03  1.5657e-03  1.3037e-02  2.5528e+00 -2.4826e-02 -4.8613e+00  4.6723e-02  9.1490e+00  0:03:40  980?    30  2.2915e-02  1.9283e-05  8.5192e-06  5.0455e-04  4.1416e-04  1.1583e-02  2.2681e+00 -2.9302e-02 -5.7376e+00  4.5667e-02  8.9421e+00  0:00:49  970?    40  1.6684e-02  1.1961e-05  5.0218e-06  2.6383e-04  1.6109e-04  1.0626e-02  2.0807e+00 -2.9839e-02 -5.8429e+00  4.5513e-02  8.9120e+00  0:00:31  960?    50  1.1964e-02  8.2102e-06  3.5265e-06  2.1603e-04  9.2684e-05  9.9693e-03  1.9521e+00 -2.7247e-02 -5.3354e+00  4.6132e-02  9.0333e+00  0:03:01  950?    60  9.2167e-03  6.3754e-06  2.8405e-06  1.9061e-04  6.3162e-05  9.5361e-03  1.8673e+00 -2.4482e-02 -4.7939e+00  4.6479e-02  9.1011e+00  0:01:36  940?    70  6.5239e-03  4.7068e-06  2.1904e-06  1.5615e-04  4.2285e-05  9.2617e-03  1.8136e+00 -2.2584e-02 -4.4223e+00  4.6531e-02  9.1114e+00  0:00:59  930?    80  5.3421e-03  3.7832e-06  1.7241e-06  1.1607e-04  3.0238e-05  9.1219e-03  1.7862e+00 -1.8984e-02 -3.7173e+00  4.7537e-02  9.3084e+00  0:00:37  920?    90  4.2072e-03  3.3682e-06  2.0120e-06  7.5605e-05  2.1439e-05  9.0160e-03  1.7654e+00 -1.3040e-02 -2.5534e+00  4.9485e-02  9.6899e+00  0:00:28  910?   100  3.6663e-03  3.6709e-06  2.6970e-06  4.6902e-05  1.6842e-05  8.9310e-03  1.7488e+00 -6.5580e-03 -1.2841e+00  5.1496e-02  1.0084e+01  0:00:27  900?   110  3.2538e-03  3.7186e-06  2.9056e-06  3.3094e-05  1.3963e-05  8.8656e-03  1.7360e+00 -1.3508e-03 -2.6451e-01  5.2836e-02  1.0346e+01  0:01:58  890??  iter  continuity  x-velocity  y-velocity           k       omega   drag-coef  drag-force   lift-coef  lift-force  moment-coe      moment     time/iter?   120  2.7931e-03  3.3915e-06  2.3282e-06  3.1278e-05  1.3790e-05  8.8332e-03  1.7297e+00  1.6434e-03  3.2180e-01  5.3347e-02  1.0446e+01  0:01:10  880?   130  2.4729e-03  2.9714e-06  1.6073e-06  2.9070e-05  1.3195e-05  8.8440e-03  1.7318e+00  2.6117e-03  5.1140e-01  5.3262e-02  1.0429e+01  0:00:37  870?   140  2.2833e-03  2.5356e-06  1.2619e-06  2.4413e-05  1.0728e-05  8.8891e-03  1.7406e+00  1.9327e-03  3.7844e-01  5.2858e-02  1.0350e+01  0:00:27  860?   150  2.1262e-03  2.2389e-06  1.4680e-06  2.0795e-05  1.0002e-05  8.9474e-03  1.7520e+00  3.7908e-04  7.4229e-02  5.2413e-02  1.0263e+01  0:00:26  850?   160  1.9232e-03  1.9178e-06  1.5470e-06  1.9109e-05  8.0913e-06  9.0062e-03  1.7635e+00 -1.7760e-03 -3.4776e-01  5.1926e-02  1.0168e+01  0:00:25  840?   170  1.8124e-03  1.6944e-06  1.4612e-06  1.6686e-05  8.6753e-06  9.0574e-03  1.7735e+00 -4.6419e-03 -9.0895e-01  5.1281e-02  1.0041e+01  0:01:50  830?   180  1.5328e-03  1.5008e-06  1.2892e-06  1.3927e-05  7.4619e-06  9.0929e-03  1.7805e+00 -7.3681e-03 -1.4428e+00  5.0734e-02  9.9344e+00  0:01:05  820?   190  1.3564e-03  1.3750e-06  1.0913e-06  1.0754e-05  8.3233e-06  9.1188e-03  1.7856e+00 -9.7649e-03 -1.9121e+00  5.0337e-02  9.8566e+00  0:00:34  810?   200  1.1212e-03  1.2424e-06  8.7534e-07  8.1490e-06  7.8065e-06  9.1353e-03  1.7888e+00 -1.1785e-02 -2.3077e+00  5.0059e-02  9.8022e+00  0:00:25  800?   210  9.4361e-04  1.1210e-06  6.6301e-07  6.1812e-06  7.3409e-06  9.1348e-03  1.7887e+00 -1.3552e-02 -2.6536e+00  4.9810e-02  9.7534e+00  0:00:24  790?   220  8.1210e-04  9.6400e-07  4.6740e-07  6.0933e-06  7.6329e-06  9.1235e-03  1.7865e+00 -1.4802e-02 -2.8984e+00  4.9678e-02  9.7277e+00  0:01:27  780??  iter  continuity  x-velocity  y-velocity           k       omega   drag-coef  drag-force   lift-coef  lift-force  moment-coe      moment     time/iter?   230  7.0773e-04  7.9853e-07  3.0925e-07  5.6869e-06  6.2038e-06  9.1186e-03  1.7855e+00 -1.5579e-02 -3.0506e+00  4.9648e-02  9.7217e+00  0:00:42  770?   240  6.5194e-04  6.3305e-07  2.0804e-07  5.0627e-06  5.5079e-06  9.1040e-03  1.7827e+00 -1.6111e-02 -3.1548e+00  4.9643e-02  9.7207e+00  0:00:25  760?   250  6.0040e-04  4.8236e-07  1.5785e-07  5.6304e-06  5.6298e-06  9.0881e-03  1.7796e+00 -1.6410e-02 -3.2133e+00  4.9651e-02  9.7224e+00  0:00:23  750?   260  5.6818e-04  3.6074e-07  1.3197e-07  5.8825e-06  6.0232e-06  9.0794e-03  1.7779e+00 -1.6526e-02 -3.2360e+00  4.9705e-02  9.7329e+00  0:00:22  740?   270  4.8584e-04  2.6547e-07  1.0281e-07  5.1237e-06  4.6416e-06  9.0705e-03  1.7761e+00 -1.6539e-02 -3.2385e+00  4.9762e-02  9.7441e+00  0:02:19  730?   280  4.9007e-04  2.1581e-07  8.8431e-08  4.5465e-06  5.0530e-06  9.0616e-03  1.7744e+00 -1.6540e-02 -3.2388e+00  4.9788e-02  9.7491e+00  0:01:02  720?   290  4.4852e-04  1.7908e-07  7.8309e-08  4.1197e-06  4.2869e-06  9.0561e-03  1.7733e+00 -1.6536e-02 -3.2379e+00  4.9800e-02  9.7515e+00  0:00:36  710?   300  4.2552e-04  1.5959e-07  6.9788e-08  3.4940e-06  3.8531e-06  9.0561e-03  1.7733e+00 -1.6515e-02 -3.2338e+00  4.9834e-02  9.7581e+00  0:00:23  700?   310  3.9393e-04  1.4282e-07  5.9380e-08  2.9132e-06  3.1145e-06  9.0553e-03  1.7731e+00 -1.6505e-02 -3.2319e+00  4.9857e-02  9.7626e+00  0:00:21  690?   320  3.8443e-04  1.3963e-07  6.0579e-08  2.5797e-06  3.6004e-06  9.0526e-03  1.7726e+00 -1.6599e-02 -3.2503e+00  4.9822e-02  9.7558e+00  0:00:20  680?   330  3.6517e-04  1.4093e-07  7.2768e-08  2.1502e-06  2.7685e-06  9.0535e-03  1.7728e+00 -1.6694e-02 -3.2688e+00  4.9806e-02  9.7526e+00  0:02:07  670??  iter  continuity  x-velocity  y-velocity           k       omega   drag-coef  drag-force   lift-coef  lift-force  moment-coe      moment     time/iter?   340  3.8171e-04  1.3909e-07  7.2359e-08  1.9043e-06  3.6374e-06  9.0563e-03  1.7733e+00 -1.6750e-02 -3.2800e+00  4.9818e-02  9.7550e+00  0:00:57  660?   350  3.5528e-04  1.2986e-07  7.1614e-08  1.7217e-06  2.6552e-06  9.0581e-03  1.7737e+00 -1.6838e-02 -3.2972e+00  4.9809e-02  9.7532e+00  0:00:33  650?   360  3.6842e-04  1.2889e-07  6.8883e-08  1.6115e-06  3.3106e-06  9.0562e-03  1.7733e+00 -1.6970e-02 -3.3229e+00  4.9778e-02  9.7472e+00  0:00:21  640?   370  3.8401e-04  1.2806e-07  7.5446e-08  2.3693e-06  4.9130e-06  9.0560e-03  1.7733e+00 -1.7108e-02 -3.3500e+00  4.9739e-02  9.7396e+00  0:00:19  630?   380  3.8247e-04  1.2926e-07  8.0799e-08  2.1343e-06  4.0980e-06  9.0617e-03  1.7744e+00 -1.7228e-02 -3.3734e+00  4.9727e-02  9.7373e+00  0:00:19  620?   390  3.6946e-04  1.3013e-07  7.7431e-08  1.5519e-06  3.2788e-06  9.0613e-03  1.7743e+00 -1.7349e-02 -3.3972e+00  4.9708e-02  9.7335e+00  0:01:21  610?   400  3.5733e-04  1.2476e-07  7.1884e-08  1.7959e-06  3.7058e-06  9.0589e-03  1.7738e+00 -1.7466e-02 -3.4201e+00  4.9677e-02  9.7273e+00  0:00:48  600?   410  4.0595e-04  1.2231e-07  6.6306e-08  2.0800e-06  5.0887e-06  9.0614e-03  1.7743e+00 -1.7531e-02 -3.4329e+00  4.9681e-02  9.7283e+00  0:00:25  590?   420  3.5291e-04  1.1632e-07  5.6295e-08  1.6184e-06  3.0330e-06  9.0619e-03  1.7744e+00 -1.7577e-02 -3.4418e+00  4.9688e-02  9.7296e+00  0:00:18  580?   430  3.5106e-04  1.1431e-07  5.2265e-08  1.6088e-06  3.5716e-06  9.0579e-03  1.7736e+00 -1.7657e-02 -3.4574e+00  4.9660e-02  9.7241e+00  0:00:17  570?   440  3.4820e-04  1.1041e-07  5.3708e-08  1.9461e-06  3.9330e-06  9.0564e-03  1.7734e+00 -1.7676e-02 -3.4612e+00  4.9670e-02  9.7261e+00  0:02:09  560??  iter  continuity  x-velocity  y-velocity           k       omega   drag-coef  drag-force   lift-coef  lift-force  moment-coe      moment     time/iter?   450  3.5138e-04  1.0718e-07  4.7220e-08  1.4969e-06  3.4273e-06  9.0585e-03  1.7738e+00 -1.7649e-02 -3.4559e+00  4.9699e-02  9.7317e+00  0:00:59  550?   460  3.3595e-04  1.0573e-07  4.6920e-08  1.2768e-06  2.8274e-06  9.0576e-03  1.7736e+00 -1.7670e-02 -3.4600e+00  4.9691e-02  9.7301e+00  0:00:34  540?   470  3.3659e-04  1.0265e-07  4.5946e-08  1.5833e-06  3.6283e-06  9.0553e-03  1.7731e+00 -1.7705e-02 -3.4668e+00  4.9672e-02  9.7265e+00  0:00:21  530?   480  3.7955e-04  9.8961e-08  4.8963e-08  2.0007e-06  4.9112e-06  9.0576e-03  1.7736e+00 -1.7716e-02 -3.4689e+00  4.9672e-02  9.7265e+00  0:00:16  520?   490  3.5112e-04  1.0002e-07  4.9380e-08  1.8626e-06  3.5383e-06  9.0594e-03  1.7740e+00 -1.7722e-02 -3.4701e+00  4.9683e-02  9.7286e+00  0:01:37  510?   500  3.4724e-04  1.0424e-07  4.6617e-08  1.6668e-06  3.9355e-06  9.0565e-03  1.7734e+00 -1.7767e-02 -3.4791e+00  4.9660e-02  9.7240e+00  0:00:51  500?   510  3.7057e-04  9.8980e-08  5.0710e-08  1.9529e-06  4.3458e-06  9.0570e-03  1.7735e+00 -1.7787e-02 -3.4830e+00  4.9654e-02  9.7228e+00  0:00:22  490?   520  3.7054e-04  1.0338e-07  5.3755e-08  2.1397e-06  4.2475e-06  9.0602e-03  1.7741e+00 -1.7783e-02 -3.4821e+00  4.9673e-02  9.7265e+00  0:00:15  480?   530  3.7639e-04  1.0773e-07  4.9797e-08  1.3725e-06  3.3199e-06  9.0572e-03  1.7735e+00 -1.7816e-02 -3.4886e+00  4.9659e-02  9.7238e+00  0:00:14  470?   540  3.4186e-04  1.0116e-07  4.8554e-08  1.4681e-06  3.3553e-06  9.0551e-03  1.7731e+00 -1.7816e-02 -3.4886e+00  4.9660e-02  9.7241e+00  0:01:46  460?   550  3.5331e-04  1.0143e-07  5.0896e-08  1.5871e-06  3.3097e-06  9.0569e-03  1.7735e+00 -1.7769e-02 -3.4793e+00  4.9686e-02  9.7291e+00  0:01:09  450??  iter  continuity  x-velocity  y-velocity           k       omega   drag-coef  drag-force   lift-coef  lift-force  moment-coe      moment     time/iter?   560  3.3509e-04  9.9426e-08  4.9673e-08  1.2669e-06  2.6293e-06  9.0575e-03  1.7736e+00 -1.7750e-02 -3.4756e+00  4.9696e-02  9.7310e+00  0:00:43  440?   570  3.4783e-04  1.0077e-07  4.7188e-08  1.2935e-06  3.7085e-06  9.0553e-03  1.7731e+00 -1.7770e-02 -3.4796e+00  4.9679e-02  9.7278e+00  0:00:19  430?   580  3.5835e-04  9.6079e-08  4.7518e-08  1.6743e-06  3.9394e-06  9.0555e-03  1.7732e+00 -1.7797e-02 -3.4848e+00  4.9660e-02  9.7241e+00  0:00:13  420?   590  3.7634e-04  1.0060e-07  5.2342e-08  2.0168e-06  4.5259e-06  9.0589e-03  1.7739e+00 -1.7801e-02 -3.4856e+00  4.9670e-02  9.7261e+00  0:00:12  410?   600  3.6421e-04  1.0549e-07  5.0618e-08  1.5657e-06  3.6450e-06  9.0581e-03  1.7737e+00 -1.7828e-02 -3.4910e+00  4.9661e-02  9.7243e+00  0:01:16  400?   610  3.6093e-04  1.0094e-07  5.0686e-08  1.8659e-06  3.9603e-06  9.0561e-03  1.7733e+00 -1.7873e-02 -3.4998e+00  4.9635e-02  9.7193e+00  0:00:48  390?   620  3.8912e-04  1.0105e-07  5.3772e-08  2.0401e-06  4.7451e-06  9.0590e-03  1.7739e+00 -1.7864e-02 -3.4980e+00  4.9655e-02  9.7231e+00  0:00:18  380?   630  3.3948e-04  1.0054e-07  4.9830e-08  1.2773e-06  2.6097e-06  9.0586e-03  1.7738e+00 -1.7860e-02 -3.4973e+00  4.9665e-02  9.7250e+00  0:00:12  370?   640  3.5173e-04  1.0280e-07  4.9610e-08  1.3179e-06  3.0830e-06  9.0551e-03  1.7731e+00 -1.7858e-02 -3.4968e+00  4.9661e-02  9.7243e+00  0:00:11  360?   650  3.6446e-04  1.0518e-07  5.3136e-08  2.2047e-06  5.3013e-06  9.0538e-03  1.7728e+00 -1.7838e-02 -3.4929e+00  4.9666e-02  9.7252e+00  0:01:21  350?   660  3.5055e-04  9.8168e-08  4.8052e-08  1.5501e-06  4.0087e-06  9.0565e-03  1.7734e+00 -1.7821e-02 -3.4896e+00  4.9680e-02  9.7279e+00  0:00:43  340??  iter  continuity  x-velocity  y-velocity           k       omega   drag-coef  drag-force   lift-coef  lift-force  moment-coe      moment     time/iter?   670  3.6072e-04  1.0151e-07  4.7637e-08  1.2381e-06  2.8716e-06  9.0558e-03  1.7732e+00 -1.7851e-02 -3.4955e+00  4.9661e-02  9.7243e+00  0:00:32  330?   680  3.5159e-04  1.0021e-07  5.0089e-08  2.0171e-06  4.0744e-06  9.0544e-03  1.7730e+00 -1.7876e-02 -3.5004e+00  4.9645e-02  9.7210e+00  0:00:14  320?   690  3.9077e-04  1.0516e-07  5.1068e-08  2.0858e-06  6.3998e-06  9.0555e-03  1.7732e+00 -1.7856e-02 -3.4964e+00  4.9667e-02  9.7254e+00  0:00:10  310?   700  3.5155e-04  1.0290e-07  4.8449e-08  1.3347e-06  2.8910e-06  9.0575e-03  1.7736e+00 -1.7881e-02 -3.5013e+00  4.9656e-02  9.7233e+00  0:00:09  300?   710  3.4501e-04  1.0313e-07  4.9984e-08  1.4683e-06  3.0406e-06  9.0550e-03  1.7731e+00 -1.7907e-02 -3.5064e+00  4.9637e-02  9.7196e+00  0:01:07  290?   720  3.6061e-04  1.0314e-07  5.0260e-08  1.5139e-06  3.2718e-06  9.0574e-03  1.7736e+00 -1.7881e-02 -3.5014e+00  4.9658e-02  9.7237e+00  0:00:43  280?   730  3.3782e-04  9.7461e-08  4.8967e-08  1.3417e-06  2.7617e-06  9.0583e-03  1.7737e+00 -1.7836e-02 -3.4925e+00  4.9683e-02  9.7286e+00  0:00:22  270?   740  3.5339e-04  1.0252e-07  4.8368e-08  1.3955e-06  3.7307e-06  9.0555e-03  1.7732e+00 -1.7854e-02 -3.4960e+00  4.9662e-02  9.7244e+00  0:00:11  260?   750  3.6304e-04  9.7579e-08  4.9595e-08  1.7248e-06  4.0252e-06  9.0557e-03  1.7732e+00 -1.7870e-02 -3.4992e+00  4.9649e-02  9.7219e+00  0:00:08  250?   760  3.7833e-04  1.0176e-07  5.3107e-08  2.0582e-06  4.6157e-06  9.0590e-03  1.7739e+00 -1.7858e-02 -3.4969e+00  4.9665e-02  9.7250e+00  0:00:07  240?   770  3.6048e-04  1.0258e-07  4.8682e-08  1.4908e-06  3.5618e-06  9.0576e-03  1.7736e+00 -1.7874e-02 -3.5000e+00  4.9657e-02  9.7234e+00  0:00:53  230??  iter  continuity  x-velocity  y-velocity           k       omega   drag-coef  drag-force   lift-coef  lift-force  moment-coe      moment     time/iter?   780  3.5567e-04  9.9704e-08  4.7991e-08  1.7422e-06  3.8369e-06  9.0556e-03  1.7732e+00 -1.7905e-02 -3.5061e+00  4.9634e-02  9.7190e+00  0:00:13  220?   790  3.6670e-04  1.0295e-07  5.1471e-08  1.7989e-06  3.6299e-06  9.0584e-03  1.7737e+00 -1.7886e-02 -3.5022e+00  4.9657e-02  9.7234e+00  0:00:07  210?   800  3.3615e-04  9.8153e-08  4.8396e-08  1.3556e-06  2.6324e-06  9.0579e-03  1.7737e+00 -1.7868e-02 -3.4987e+00  4.9670e-02  9.7260e+00  0:00:06  200?   810  3.5034e-04  9.9425e-08  4.8774e-08  1.2935e-06  2.9314e-06  9.0547e-03  1.7730e+00 -1.7887e-02 -3.5026e+00  4.9650e-02  9.7221e+00  0:00:36  190?   820  3.7307e-04  1.0255e-07  5.0266e-08  2.3145e-06  5.9197e-06  9.0541e-03  1.7729e+00 -1.7875e-02 -3.5002e+00  4.9656e-02  9.7233e+00  0:00:18  180?   830  3.5992e-04  9.9661e-08  4.7033e-08  1.6208e-06  4.2250e-06  9.0572e-03  1.7735e+00 -1.7859e-02 -3.4970e+00  4.9673e-02  9.7265e+00  0:00:11  170?   840  3.6525e-04  1.0320e-07  4.7643e-08  1.2992e-06  3.3004e-06  9.0559e-03  1.7733e+00 -1.7898e-02 -3.5046e+00  4.9646e-02  9.7214e+00  0:00:06  160?   850  3.6900e-04  1.0176e-07  5.2866e-08  2.1279e-06  4.7355e-06  9.0544e-03  1.7730e+00 -1.7905e-02 -3.5061e+00  4.9641e-02  9.7203e+00  0:00:05  150?   860  3.6302e-04  1.0011e-07  5.1523e-08  1.9279e-06  3.8525e-06  9.0589e-03  1.7738e+00 -1.7876e-02 -3.5004e+00  4.9664e-02  9.7248e+00  0:00:04  140?   870  3.4892e-04  1.0130e-07  4.7661e-08  1.3561e-06  3.1260e-06  9.0577e-03  1.7736e+00 -1.7874e-02 -3.4999e+00  4.9664e-02  9.7249e+00  0:00:25  130?   880  3.4310e-04  9.9135e-08  4.7182e-08  1.6364e-06  3.5998e-06  9.0551e-03  1.7731e+00 -1.7897e-02 -3.5044e+00  4.9644e-02  9.7208e+00  0:00:12  120??  iter  continuity  x-velocity  y-velocity           k       omega   drag-coef  drag-force   lift-coef  lift-force  moment-coe      moment     time/iter?   890  3.9098e-04  9.8202e-08  5.0730e-08  1.9463e-06  4.9647e-06  9.0578e-03  1.7736e+00 -1.7880e-02 -3.5012e+00  4.9656e-02  9.7233e+00  0:00:07  110?   900  3.4043e-04  9.7531e-08  4.8718e-08  1.4249e-06  2.7850e-06  9.0586e-03  1.7738e+00 -1.7881e-02 -3.5014e+00  4.9662e-02  9.7244e+00  0:00:04  100?   910  3.5875e-04  1.0079e-07  4.8140e-08  1.4337e-06  3.4066e-06  9.0551e-03  1.7731e+00 -1.7904e-02 -3.5058e+00  4.9644e-02  9.7209e+00  0:00:03   90?   920  3.7378e-04  1.0459e-07  5.2764e-08  2.2526e-06  5.4870e-06  9.0542e-03  1.7729e+00 -1.7887e-02 -3.5025e+00  4.9653e-02  9.7228e+00  0:00:18   80?   930  3.5602e-04  9.8176e-08  4.6128e-08  1.5703e-06  4.0326e-06  9.0569e-03  1.7735e+00 -1.7856e-02 -3.4963e+00  4.9676e-02  9.7272e+00  0:00:09   70?   940  3.5932e-04  9.9380e-08  4.7119e-08  1.2236e-06  2.9383e-06  9.0558e-03  1.7732e+00 -1.7876e-02 -3.5004e+00  4.9659e-02  9.7238e+00  0:00:05   60?   950  3.4773e-04  9.9995e-08  4.8641e-08  1.9818e-06  4.0519e-06  9.0541e-03  1.7729e+00 -1.7894e-02 -3.5038e+00  4.9644e-02  9.7209e+00  0:00:02   50?   960  3.9434e-04  1.0452e-07  5.1206e-08  1.9753e-06  6.0013e-06  9.0555e-03  1.7732e+00 -1.7868e-02 -3.4988e+00  4.9668e-02  9.7255e+00  0:00:09   40?   970  3.4797e-04  1.0137e-07  4.7411e-08  1.2735e-06  2.8313e-06  9.0575e-03  1.7736e+00 -1.7888e-02 -3.5027e+00  4.9657e-02  9.7236e+00  0:00:04   30?   980  3.4565e-04  9.9951e-08  4.9370e-08  1.3648e-06  2.9621e-06  9.0548e-03  1.7730e+00 -1.7902e-02 -3.5055e+00  4.9644e-02  9.7210e+00  0:00:02   20?   990  3.8722e-04  9.8925e-08  5.1205e-08  1.9124e-06  4.8990e-06  9.0574e-03  1.7736e+00 -1.7883e-02 -3.5016e+00  4.9655e-02  9.7231e+00  0:00:00   10??  iter  continuity  x-velocity  y-velocity           k       omega   drag-coef  drag-force   lift-coef  lift-force  moment-coe      moment     time/iter?  1000  3.3953e-04  9.8916e-08  4.8771e-08  1.6377e-06  3.2741e-06  9.0589e-03  1.7738e+00 -1.7863e-02 -3.4978e+00  4.9671e-02  9.7262e+00  0:00:00    0??Calculation complete.?Writing "P:/AE516/Project_1/Fluent/ZERO_LIFT/NACA2408_ZLFT_N2_2DEG.cas"...?   10638 triangular cells, zone  2, binary.?   10638 cell partition ids, zone  2, 4 partitions, binary.?   15746 2D interior faces, zone  3, binary.?     306 2D wall faces, zone  4, binary.?      29 2D pressure-outlet faces, zone  5, binary.?      29 2D velocity-inlet faces, zone  6, binary.?      58 2D symmetry faces, zone  7, binary.?    5530 nodes, binary.?    5530 node flags, binary.?Done.??Writing "P:/AE516/Project_1/Fluent/ZERO_LIFT/NACA2408_ZLFT_N2_2DEG.dat"...?Done.??Multicore SMT processors detected. Processor affinity set!?Reading "P:/AE516/Project_1/Fluent/3_5DEG/NACA2408_P3_5DEG.cas"...?Buffering for file scan...???       Clearing partially read grid.?    5530 nodes.?   10638 triangular cells, zone  2.?   15746 2D interior faces, zone  3.?     306 2D wall faces, zone  4.?      29 2D pressure-outlet faces, zone  5.?      29 2D velocity-inlet faces, zone  6.?      58 2D symmetry faces, zone  7.??Building...?     mesh?	auto partitioning mesh by Metis (fast),?	distributing mesh?		parts....,?		faces....,?		nodes....,?		cells....,?        bandwidth reduction using Reverse Cuthill-McKee: 2604/103 = 25.2816?     materials,?     interface,?     domains,?     zones,?	tunnel?	inlet?	exit?	airfoil?	interior-unspecified?	unspecified?     parallel,?Done.?Writing "P:/AE516/Project_1/Fluent/3_5DEG/NACA2408_P3_5DEG.cas"...?   10638 triangular cells, zone  2, binary.?   10638 cell partition ids, zone  2, 4 partitions, binary.?   15746 2D interior faces, zone  3, binary.?     306 2D wall faces, zone  4, binary.?      29 2D pressure-outlet faces, zone  5, binary.?      29 2D velocity-inlet faces, zone  6, binary.?      58 2D symmetry faces, zone  7, binary.?    5530 nodes, binary.?    5530 node flags, binary.?Done.??Multicore SMT processors detected. Processor affinity set!?Reading "P:/AE516/Project_1/Fluent/ZERO_LIFT/NACA2408_ZLFT_N2_2DEG.cas"...?Buffering for file scan...?????       Clearing partially read grid.?   10638 triangular cells, zone  2, binary.?   10638 cell partition ids, zone  2, 4 partitions, binary.?   15746 2D interior faces, zone  3, binary.?     306 2D wall faces, zone  4, binary.?      29 2D pressure-outlet faces, zone  5, binary.?      29 2D velocity-inlet faces, zone  6, binary.?      58 2D symmetry faces, zone  7, binary.?    5530 nodes, binary.?5530 node flags, binary.??Building...?     mesh?	distributing mesh?		parts....,?		faces....,?		nodes....,?		cells....,?        bandwidth reduction using Reverse Cuthill-McKee: 2654/100 = 26.54?     materials,?     interface,?     domains,?	mixture?     zones,?	tunnel?	inlet?	exit?	airfoil?	interior-unspecified?	unspecified?     parallel,?Done.???Calculation complete.??Overwriting "P:\AE516\Project_1\Fluent\ZERO_LIFT\moment-rfile.out"  of Report File "moment-rfile"?Overwriting "P:\AE516\Project_1\Fluent\ZERO_LIFT\moment-coef-rfile.out"  of Report File "moment-coef-rfile"?Overwriting "P:\AE516\Project_1\Fluent\ZERO_LIFT\lift-force-rfile.out"  of Report File "lift-force-rfile"?Overwriting "P:\AE516\Project_1\Fluent\ZERO_LIFT\lift-coef-rfile.out"  of Report File "lift-coef-rfile"?Overwriting "P:\AE516\Project_1\Fluent\ZERO_LIFT\drag-force-rfile.out"  of Report File "drag-force-rfile"?Overwriting "P:\AE516\Project_1\Fluent\ZERO_LIFT\drag-coef-rfile.out"  of Report File "drag-coef-rfile"??  iter  continuity  x-velocity  y-velocity           k       omega      moment  moment-coe  lift-force   lift-coef  drag-force   drag-coef     time/iter?readReportDefinitionDataFromFile done?readReportDefinitionDataFromFile done?readReportDefinitionDataFromFile done?readReportDefinitionDataFromFile done?readReportDefinitionDataFromFile done?readReportDefinitionDataFromFile done?readReportDefinitionDataFromFile done?readReportDefinitionDataFromFile done?readReportDefinitionDataFromFile done?readReportDefinitionDataFromFile done?readReportDefinitionDataFromFile done?readReportDefinitionDataFromFile done?readReportDefinitionDataFromFile done?readReportDefinitionDataFromFile done?readReportDefinitionDataFromFile done?readReportDefinitionDataFromFile done?readReportDefinitionDataFromFile done?readReportDefinitionDataFromFile done?readReportDefinitionDataFromFile done?readReportDefinitionDataFromFile done?readReportDefinitionDataFromFile done?    10  6.9197e-02  4.1543e-05  2.6835e-05  8.9339e-03  9.7853e-03  9.3456e+00  4.7727e-02 -2.2349e+00 -1.1414e-02  2.9101e+00  1.4862e-02  0:10:34  990?    20  3.4080e-02  2.7960e-05  1.3355e-05  1.4781e-03  1.5657e-03  9.1980e+00  4.6974e-02 -4.8613e+00 -2.4826e-02  2.5528e+00  1.3037e-02  0:02:53  980?    30  2.2915e-02  1.9283e-05  8.5192e-06  5.0455e-04  4.1416e-04  8.9857e+00  4.5889e-02 -5.7376e+00 -2.9302e-02  2.2681e+00  1.1583e-02  0:00:44  970?    40  1.6684e-02  1.1961e-05  5.0218e-06  2.6383e-04  1.6109e-04  8.9519e+00  4.5717e-02 -5.8429e+00 -2.9839e-02  2.0807e+00  1.0626e-02  0:03:04  960?    50  1.1964e-02  8.2102e-06  3.5265e-06  2.1603e-04  9.2684e-05  9.0708e+00  4.6324e-02 -5.3354e+00 -2.7247e-02  1.9521e+00  9.9693e-03  0:01:57  950?    60  9.2167e-03  6.3754e-06  2.8405e-06  1.9061e-04  6.3162e-05  9.1370e+00  4.6662e-02 -4.7939e+00 -2.4482e-02  1.8673e+00  9.5361e-03  0:01:14  940?    70  6.5239e-03  4.7068e-06  2.1904e-06  1.5615e-04  4.2285e-05  9.1462e+00  4.6709e-02 -4.4223e+00 -2.2584e-02  1.8136e+00  9.2617e-03  0:00:39  930?    80  5.3421e-03  3.7832e-06  1.7241e-06  1.1607e-04  3.0238e-05  9.3427e+00  4.7712e-02 -3.7173e+00 -1.8984e-02  1.7862e+00  9.1219e-03  0:00:29  920?    90  4.2072e-03  3.3682e-06  2.0120e-06  7.5605e-05  2.1439e-05  9.7238e+00  4.9658e-02 -2.5534e+00 -1.3040e-02  1.7654e+00  9.0160e-03  0:00:27  910?   100  3.6663e-03  3.6709e-06  2.6970e-06  4.6902e-05  1.6842e-05  1.0117e+01  5.1668e-02 -1.2841e+00 -6.5580e-03  1.7488e+00  8.9310e-03  0:02:22  900?   110  3.2538e-03  3.7186e-06  2.9056e-06  3.3094e-05  1.3963e-05  1.0379e+01  5.3006e-02 -2.6451e-01 -1.3508e-03  1.7360e+00  8.8656e-03  0:01:28  890??  iter  continuity  x-velocity  y-velocity           k       omega      moment  moment-coe  lift-force   lift-coef  drag-force   drag-coef     time/iter?   120  2.7931e-03  3.3915e-06  2.3282e-06  3.1278e-05  1.3790e-05  1.0479e+01  5.3516e-02  3.2180e-01  1.6434e-03  1.7297e+00  8.8332e-03  0:00:55  880?   130  2.4729e-03  2.9714e-06  1.6073e-06  2.9070e-05  1.3195e-05  1.0463e+01  5.3432e-02  5.1140e-01  2.6117e-03  1.7318e+00  8.8440e-03  0:00:29  870?   140  2.2833e-03  2.5356e-06  1.2619e-06  2.4413e-05  1.0728e-05  1.0384e+01  5.3029e-02  3.7844e-01  1.9327e-03  1.7406e+00  8.8891e-03  0:00:26  860?   150  2.1262e-03  2.2389e-06  1.4680e-06  2.0795e-05  1.0002e-05  1.0297e+01  5.2585e-02  7.4229e-02  3.7908e-04  1.7520e+00  8.9474e-03  0:03:16  850?   160  1.9232e-03  1.9178e-06  1.5470e-06  1.9109e-05  8.0913e-06  1.0202e+01  5.2099e-02 -3.4776e-01 -1.7760e-03  1.7635e+00  9.0062e-03  0:01:47  840?   170  1.8124e-03  1.6944e-06  1.4612e-06  1.6686e-05  8.6753e-06  1.0075e+01  5.1454e-02 -9.0895e-01 -4.6419e-03  1.7735e+00  9.0574e-03  0:01:06  830?   180  1.5328e-03  1.5008e-06  1.2892e-06  1.3927e-05  7.4619e-06  9.9686e+00  5.0909e-02 -1.4428e+00 -7.3681e-03  1.7805e+00  9.0929e-03  0:00:41  820?   190  1.3564e-03  1.3750e-06  1.0913e-06  1.0754e-05  8.3233e-06  9.8909e+00  5.0512e-02 -1.9121e+00 -9.7649e-03  1.7856e+00  9.1188e-03  0:00:26  810?   200  1.1212e-03  1.2424e-06  8.7534e-07  8.1490e-06  7.8065e-06  9.8365e+00  5.0234e-02 -2.3077e+00 -1.1785e-02  1.7888e+00  9.1353e-03  0:00:24  800?   210  9.4361e-04  1.1210e-06  6.6301e-07  6.1812e-06  7.3409e-06  9.7877e+00  4.9985e-02 -2.6536e+00 -1.3552e-02  1.7887e+00  9.1348e-03  0:03:02  790?   220  8.1210e-04  9.6400e-07  4.6740e-07  6.0933e-06  7.6329e-06  9.7620e+00  4.9854e-02 -2.8984e+00 -1.4802e-02  1.7865e+00  9.1235e-03  0:01:39  780??  iter  continuity  x-velocity  y-velocity           k       omega      moment  moment-coe  lift-force   lift-coef  drag-force   drag-coef     time/iter?   230  7.0773e-04  7.9853e-07  3.0925e-07  5.6869e-06  6.2038e-06  9.7560e+00  4.9823e-02 -3.0506e+00 -1.5579e-02  1.7855e+00  9.1186e-03  0:01:01  770?   240  6.5194e-04  6.3305e-07  2.0804e-07  5.0627e-06  5.5079e-06  9.7549e+00  4.9818e-02 -3.1548e+00 -1.6111e-02  1.7827e+00  9.1040e-03  0:00:32  760?   250  6.0040e-04  4.8236e-07  1.5785e-07  5.6304e-06  5.6298e-06  9.7565e+00  4.9826e-02 -3.2133e+00 -1.6410e-02  1.7796e+00  9.0881e-03  0:00:24  750?   260  5.6818e-04  3.6074e-07  1.3197e-07  5.8825e-06  6.0232e-06  9.7671e+00  4.9880e-02 -3.2360e+00 -1.6526e-02  1.7779e+00  9.0794e-03  0:00:22  740?   270  4.8584e-04  2.6547e-07  1.0281e-07  5.1237e-06  4.6416e-06  9.7782e+00  4.9936e-02 -3.2385e+00 -1.6539e-02  1.7761e+00  9.0705e-03  0:02:19  730?   280  4.9007e-04  2.1581e-07  8.8431e-08  4.5465e-06  5.0530e-06  9.7832e+00  4.9962e-02 -3.2388e+00 -1.6540e-02  1.7744e+00  9.0616e-03  0:01:14  720?   290  4.4852e-04  1.7908e-07  7.8309e-08  4.1197e-06  4.2869e-06  9.7856e+00  4.9974e-02 -3.2379e+00 -1.6536e-02  1.7733e+00  9.0561e-03  0:00:45  710?   300  4.2552e-04  1.5959e-07  6.9788e-08  3.4940e-06  3.8531e-06  9.7921e+00  5.0008e-02 -3.2338e+00 -1.6515e-02  1.7733e+00  9.0561e-03  0:00:24  700?   310  3.9393e-04  1.4282e-07  5.9380e-08  2.9132e-06  3.1145e-06  9.7966e+00  5.0031e-02 -3.2319e+00 -1.6505e-02  1.7731e+00  9.0553e-03  0:00:21  690?   320  3.8443e-04  1.3963e-07  6.0579e-08  2.5797e-06  3.6004e-06  9.7898e+00  4.9996e-02 -3.2503e+00 -1.6599e-02  1.7726e+00  9.0526e-03  0:02:36  680?   330  3.6517e-04  1.4093e-07  7.2768e-08  2.1502e-06  2.7685e-06  9.7866e+00  4.9980e-02 -3.2688e+00 -1.6694e-02  1.7728e+00  9.0535e-03  0:01:42  670??  iter  continuity  x-velocity  y-velocity           k       omega      moment  moment-coe  lift-force   lift-coef  drag-force   drag-coef     time/iter?   340  3.8171e-04  1.3909e-07  7.2359e-08  1.9043e-06  3.6374e-06  9.7890e+00  4.9992e-02 -3.2800e+00 -1.6750e-02  1.7733e+00  9.0563e-03  0:01:05  660?   350  3.5528e-04  1.2986e-07  7.1614e-08  1.7217e-06  2.6552e-06  9.7873e+00  4.9983e-02 -3.2972e+00 -1.6838e-02  1.7737e+00  9.0581e-03  0:00:29  650?   360  3.6842e-04  1.2889e-07  6.8883e-08  1.6115e-06  3.3106e-06  9.7813e+00  4.9952e-02 -3.3229e+00 -1.6970e-02  1.7733e+00  9.0562e-03  0:00:20  640?   370  3.8401e-04  1.2806e-07  7.5446e-08  2.3693e-06  4.9130e-06  9.7737e+00  4.9913e-02 -3.3500e+00 -1.7108e-02  1.7733e+00  9.0560e-03  0:00:19  630?   380  3.8247e-04  1.2926e-07  8.0799e-08  2.1343e-06  4.0980e-06  9.7713e+00  4.9901e-02 -3.3734e+00 -1.7228e-02  1.7744e+00  9.0617e-03  0:01:58  620?   390  3.6946e-04  1.3013e-07  7.7431e-08  1.5519e-06  3.2788e-06  9.7676e+00  4.9882e-02 -3.3972e+00 -1.7349e-02  1.7743e+00  9.0613e-03  0:01:15  610?   400  3.5733e-04  1.2476e-07  7.1884e-08  1.7959e-06  3.7058e-06  9.7614e+00  4.9851e-02 -3.4201e+00 -1.7466e-02  1.7738e+00  9.0589e-03  0:00:39  600?   410  4.0595e-04  1.2231e-07  6.6306e-08  2.0800e-06  5.0887e-06  9.7623e+00  4.9855e-02 -3.4329e+00 -1.7531e-02  1.7743e+00  9.0614e-03  0:00:20  590?   420  3.5291e-04  1.1632e-07  5.6295e-08  1.6184e-06  3.0330e-06  9.7637e+00  4.9862e-02 -3.4418e+00 -1.7577e-02  1.7744e+00  9.0619e-03  0:00:18  580?   430  3.5106e-04  1.1431e-07  5.2265e-08  1.6088e-06  3.5716e-06  9.7582e+00  4.9834e-02 -3.4574e+00 -1.7657e-02  1.7736e+00  9.0579e-03  0:00:17  570?   440  3.4820e-04  1.1041e-07  5.3708e-08  1.9461e-06  3.9330e-06  9.7601e+00  4.9844e-02 -3.4612e+00 -1.7676e-02  1.7734e+00  9.0564e-03  0:01:46  560??  iter  continuity  x-velocity  y-velocity           k       omega      moment  moment-coe  lift-force   lift-coef  drag-force   drag-coef     time/iter?   450  3.5138e-04  1.0718e-07  4.7220e-08  1.4969e-06  3.4273e-06  9.7658e+00  4.9873e-02 -3.4559e+00 -1.7649e-02  1.7738e+00  9.0585e-03  0:00:56  550?   460  3.3595e-04  1.0573e-07  4.6920e-08  1.2768e-06  2.8274e-06  9.7642e+00  4.9865e-02 -3.4600e+00 -1.7670e-02  1.7736e+00  9.0576e-03  0:00:34  540?   470  3.3659e-04  1.0265e-07  4.5946e-08  1.5833e-06  3.6283e-06  9.7605e+00  4.9846e-02 -3.4668e+00 -1.7705e-02  1.7731e+00  9.0553e-03  0:00:18  530?   480  3.7955e-04  9.8961e-08  4.8963e-08  2.0007e-06  4.9112e-06  9.7606e+00  4.9846e-02 -3.4689e+00 -1.7716e-02  1.7736e+00  9.0576e-03  0:00:16  520?   490  3.5112e-04  1.0002e-07  4.9380e-08  1.8626e-06  3.5383e-06  9.7626e+00  4.9857e-02 -3.4701e+00 -1.7722e-02  1.7740e+00  9.0594e-03  0:00:15  510?   500  3.4724e-04  1.0424e-07  4.6617e-08  1.6668e-06  3.9355e-06  9.7580e+00  4.9833e-02 -3.4791e+00 -1.7767e-02  1.7734e+00  9.0565e-03  0:01:35  500?   510  3.7057e-04  9.8980e-08  5.0710e-08  1.9529e-06  4.3458e-06  9.7569e+00  4.9827e-02 -3.4830e+00 -1.7787e-02  1.7735e+00  9.0570e-03  0:01:00  490?   520  3.7054e-04  1.0338e-07  5.3755e-08  2.1397e-06  4.2475e-06  9.7606e+00  4.9846e-02 -3.4821e+00 -1.7783e-02  1.7741e+00  9.0602e-03  0:00:26  480?   530  3.7639e-04  1.0773e-07  4.9797e-08  1.3725e-06  3.3199e-06  9.7578e+00  4.9833e-02 -3.4886e+00 -1.7816e-02  1.7735e+00  9.0572e-03  0:00:15  470?   540  3.4186e-04  1.0116e-07  4.8554e-08  1.4681e-06  3.3553e-06  9.7581e+00  4.9834e-02 -3.4886e+00 -1.7816e-02  1.7731e+00  9.0551e-03  0:00:14  460?   550  3.5331e-04  1.0143e-07  5.0896e-08  1.5871e-06  3.3097e-06  9.7632e+00  4.9860e-02 -3.4793e+00 -1.7769e-02  1.7735e+00  9.0569e-03  0:00:14  450??  iter  continuity  x-velocity  y-velocity           k       omega      moment  moment-coe  lift-force   lift-coef  drag-force   drag-coef     time/iter?   560  3.3509e-04  9.9426e-08  4.9673e-08  1.2669e-06  2.6293e-06  9.7651e+00  4.9870e-02 -3.4756e+00 -1.7750e-02  1.7736e+00  9.0575e-03  0:01:41  440?   570  3.4783e-04  1.0077e-07  4.7188e-08  1.2935e-06  3.7085e-06  9.7618e+00  4.9853e-02 -3.4796e+00 -1.7770e-02  1.7731e+00  9.0553e-03  0:00:39  430?   580  3.5835e-04  9.6079e-08  4.7518e-08  1.6743e-06  3.9394e-06  9.7581e+00  4.9834e-02 -3.4848e+00 -1.7797e-02  1.7732e+00  9.0555e-03  0:00:22  420?   590  3.7634e-04  1.0060e-07  5.2342e-08  2.0168e-06  4.5259e-06  9.7601e+00  4.9844e-02 -3.4856e+00 -1.7801e-02  1.7739e+00  9.0589e-03  0:00:13  410?   600  3.6421e-04  1.0549e-07  5.0618e-08  1.5657e-06  3.6450e-06  9.7584e+00  4.9835e-02 -3.4910e+00 -1.7828e-02  1.7737e+00  9.0581e-03  0:00:12  400?   610  3.6093e-04  1.0094e-07  5.0686e-08  1.8659e-06  3.9603e-06  9.7533e+00  4.9809e-02 -3.4998e+00 -1.7873e-02  1.7733e+00  9.0561e-03  0:00:12  390?   620  3.8912e-04  1.0105e-07  5.3772e-08  2.0401e-06  4.7451e-06  9.7571e+00  4.9829e-02 -3.4980e+00 -1.7864e-02  1.7739e+00  9.0590e-03  0:01:00  380?   630  3.3948e-04  1.0054e-07  4.9830e-08  1.2773e-06  2.6097e-06  9.7590e+00  4.9838e-02 -3.4973e+00 -1.7860e-02  1.7738e+00  9.0586e-03  0:00:26  370?   640  3.5173e-04  1.0280e-07  4.9610e-08  1.3179e-06  3.0830e-06  9.7583e+00  4.9835e-02 -3.4968e+00 -1.7858e-02  1.7731e+00  9.0551e-03  0:00:15  360?   650  3.6446e-04  1.0518e-07  5.3136e-08  2.2047e-06  5.3013e-06  9.7593e+00  4.9840e-02 -3.4929e+00 -1.7838e-02  1.7728e+00  9.0538e-03  0:00:11  350?   660  3.5055e-04  9.8168e-08  4.8052e-08  1.5501e-06  4.0087e-06  9.7620e+00  4.9854e-02 -3.4896e+00 -1.7821e-02  1.7734e+00  9.0565e-03  0:00:10  340??  iter  continuity  x-velocity  y-velocity           k       omega      moment  moment-coe  lift-force   lift-coef  drag-force   drag-coef     time/iter?   670  3.6072e-04  1.0151e-07  4.7637e-08  1.2381e-06  2.8716e-06  9.7584e+00  4.9835e-02 -3.4955e+00 -1.7851e-02  1.7732e+00  9.0558e-03  0:00:52  330?   680  3.5159e-04  1.0021e-07  5.0089e-08  2.0171e-06  4.0744e-06  9.7551e+00  4.9818e-02 -3.5004e+00 -1.7876e-02  1.7730e+00  9.0544e-03  0:00:32  320?   690  3.9077e-04  1.0516e-07  5.1068e-08  2.0858e-06  6.3998e-06  9.7594e+00  4.9841e-02 -3.4964e+00 -1.7856e-02  1.7732e+00  9.0555e-03  0:00:14  310?   700  3.5155e-04  1.0290e-07  4.8449e-08  1.3347e-06  2.8910e-06  9.7573e+00  4.9830e-02 -3.5013e+00 -1.7881e-02  1.7736e+00  9.0575e-03  0:00:09  300?   710  3.4501e-04  1.0313e-07  4.9984e-08  1.4683e-06  3.0406e-06  9.7537e+00  4.9811e-02 -3.5064e+00 -1.7907e-02  1.7731e+00  9.0550e-03  0:00:09  290?   720  3.6061e-04  1.0314e-07  5.0260e-08  1.5139e-06  3.2718e-06  9.7578e+00  4.9832e-02 -3.5014e+00 -1.7881e-02  1.7736e+00  9.0574e-03  0:00:53  280?   730  3.3782e-04  9.7461e-08  4.8967e-08  1.3417e-06  2.7617e-06  9.7626e+00  4.9857e-02 -3.4925e+00 -1.7836e-02  1.7737e+00  9.0583e-03  0:00:33  270?   740  3.5339e-04  1.0252e-07  4.8368e-08  1.3955e-06  3.7307e-06  9.7585e+00  4.9836e-02 -3.4960e+00 -1.7854e-02  1.7732e+00  9.0555e-03  0:00:14  260?   750  3.6304e-04  9.7579e-08  4.9595e-08  1.7248e-06  4.0252e-06  9.7559e+00  4.9823e-02 -3.4992e+00 -1.7870e-02  1.7732e+00  9.0557e-03  0:00:08  250?   760  3.7833e-04  1.0176e-07  5.3107e-08  2.0582e-06  4.6157e-06  9.7591e+00  4.9839e-02 -3.4969e+00 -1.7858e-02  1.7739e+00  9.0590e-03  0:00:07  240?   770  3.6048e-04  1.0258e-07  4.8682e-08  1.4908e-06  3.5618e-06  9.7575e+00  4.9831e-02 -3.5000e+00 -1.7874e-02  1.7736e+00  9.0576e-03  0:00:07  230??  iter  continuity  x-velocity  y-velocity           k       omega      moment  moment-coe  lift-force   lift-coef  drag-force   drag-coef     time/iter?   780  3.5567e-04  9.9704e-08  4.7991e-08  1.7422e-06  3.8369e-06  9.7531e+00  4.9808e-02 -3.5061e+00 -1.7905e-02  1.7732e+00  9.0556e-03  0:00:29  220?   790  3.6670e-04  1.0295e-07  5.1471e-08  1.7989e-06  3.6299e-06  9.7574e+00  4.9830e-02 -3.5022e+00 -1.7886e-02  1.7737e+00  9.0584e-03  0:00:14  210?   800  3.3615e-04  9.8153e-08  4.8396e-08  1.3556e-06  2.6324e-06  9.7600e+00  4.9844e-02 -3.4987e+00 -1.7868e-02  1.7737e+00  9.0579e-03  0:00:07  200?   810  3.5034e-04  9.9425e-08  4.8774e-08  1.2935e-06  2.9314e-06  9.7561e+00  4.9824e-02 -3.5026e+00 -1.7887e-02  1.7730e+00  9.0547e-03  0:00:06  190?   820  3.7307e-04  1.0255e-07  5.0266e-08  2.3145e-06  5.9197e-06  9.7574e+00  4.9830e-02 -3.5002e+00 -1.7875e-02  1.7729e+00  9.0541e-03  0:00:41  180?   830  3.5992e-04  9.9661e-08  4.7033e-08  1.6208e-06  4.2250e-06  9.7606e+00  4.9847e-02 -3.4970e+00 -1.7859e-02  1.7735e+00  9.0572e-03  0:00:26  170?   840  3.6525e-04  1.0320e-07  4.7643e-08  1.2992e-06  3.3004e-06  9.7554e+00  4.9820e-02 -3.5046e+00 -1.7898e-02  1.7733e+00  9.0559e-03  0:00:16  160?   850  3.6900e-04  1.0176e-07  5.2866e-08  2.1279e-06  4.7355e-06  9.7543e+00  4.9815e-02 -3.5061e+00 -1.7905e-02  1.7730e+00  9.0544e-03  0:00:07  150?   860  3.6302e-04  1.0011e-07  5.1523e-08  1.9279e-06  3.8525e-06  9.7589e+00  4.9838e-02 -3.5004e+00 -1.7876e-02  1.7738e+00  9.0589e-03  0:00:04  140?   870  3.4892e-04  1.0130e-07  4.7661e-08  1.3561e-06  3.1260e-06  9.7589e+00  4.9838e-02 -3.4999e+00 -1.7874e-02  1.7736e+00  9.0577e-03  0:00:04  130?   880  3.4310e-04  9.9135e-08  4.7182e-08  1.6364e-06  3.5998e-06  9.7549e+00  4.9817e-02 -3.5044e+00 -1.7897e-02  1.7731e+00  9.0551e-03  0:00:23  120??  iter  continuity  x-velocity  y-velocity           k       omega      moment  moment-coe  lift-force   lift-coef  drag-force   drag-coef     time/iter?   890  3.9098e-04  9.8202e-08  5.0730e-08  1.9463e-06  4.9647e-06  9.7573e+00  4.9830e-02 -3.5012e+00 -1.7880e-02  1.7736e+00  9.0578e-03  0:00:11  110?   900  3.4043e-04  9.7531e-08  4.8718e-08  1.4249e-06  2.7850e-06  9.7585e+00  4.9836e-02 -3.5014e+00 -1.7881e-02  1.7738e+00  9.0586e-03  0:00:06  100?   910  3.5875e-04  1.0079e-07  4.8140e-08  1.4337e-06  3.4066e-06  9.7549e+00  4.9818e-02 -3.5058e+00 -1.7904e-02  1.7731e+00  9.0551e-03  0:00:03   90?   920  3.7378e-04  1.0459e-07  5.2764e-08  2.2526e-06  5.4870e-06  9.7568e+00  4.9827e-02 -3.5025e+00 -1.7887e-02  1.7729e+00  9.0542e-03  0:00:02   80?   930  3.5602e-04  9.8176e-08  4.6128e-08  1.5703e-06  4.0326e-06  9.7612e+00  4.9850e-02 -3.4963e+00 -1.7856e-02  1.7735e+00  9.0569e-03  0:00:02   70?   940  3.5932e-04  9.9380e-08  4.7119e-08  1.2236e-06  2.9383e-06  9.7579e+00  4.9833e-02 -3.5004e+00 -1.7876e-02  1.7732e+00  9.0558e-03  0:00:09   60?   950  3.4773e-04  9.9995e-08  4.8641e-08  1.9818e-06  4.0519e-06  9.7550e+00  4.9818e-02 -3.5038e+00 -1.7894e-02  1.7729e+00  9.0541e-03  0:00:05   50?   960  3.9434e-04  1.0452e-07  5.1206e-08  1.9753e-06  6.0013e-06  9.7596e+00  4.9841e-02 -3.4988e+00 -1.7868e-02  1.7732e+00  9.0555e-03  0:00:02   40?   970  3.4797e-04  1.0137e-07  4.7411e-08  1.2735e-06  2.8313e-06  9.7576e+00  4.9831e-02 -3.5027e+00 -1.7888e-02  1.7736e+00  9.0575e-03  0:00:01   30?   980  3.4565e-04  9.9951e-08  4.9370e-08  1.3648e-06  2.9621e-06  9.7550e+00  4.9818e-02 -3.5055e+00 -1.7902e-02  1.7730e+00  9.0548e-03  0:00:01   20?   990  3.8722e-04  9.8925e-08  5.1205e-08  1.9124e-06  4.8990e-06  9.7572e+00  4.9829e-02 -3.5016e+00 -1.7883e-02  1.7736e+00  9.0574e-03  0:00:02   10??  iter  continuity  x-velocity  y-velocity           k       omega      moment  moment-coe  lift-force   lift-coef  drag-force   drag-coef     time/iter?  1000  3.3953e-04  9.8916e-08  4.8771e-08  1.6377e-06  3.2741e-06  9.7602e+00  4.9845e-02 -3.4978e+00 -1.7863e-02  1.7738e+00  9.0589e-03  0:00:00    0??Calculation complete.?Writing "P:/AE516/Project_1/Fluent/ZERO_LIFT/NACA2408_ZLFT_N2_2DEG.cas"...?   10638 triangular cells, zone  2, binary.?   10638 cell partition ids, zone  2, 4 partitions, binary.?   15746 2D interior faces, zone  3, binary.?     306 2D wall faces, zone  4, binary.?      29 2D pressure-outlet faces, zone  5, binary.?      29 2D velocity-inlet faces, zone  6, binary.?      58 2D symmetry faces, zone  7, binary.?    5530 nodes, binary.?    5530 node flags, binary.?Done.??Writing "P:/AE516/Project_1/Fluent/ZERO_LIFT/NACA2408_ZLFT_N2_2DEG.dat"...?Done.??Multicore SMT processors detected. Processor affinity set!?Reading "P:/AE516/Project_1/Fluent/3_5DEG/NACA2408_P3_5DEG.cas"...?Buffering for file scan...?????       Clearing partially read grid.?   10638 triangular cells, zone  2, binary.?   10638 cell partition ids, zone  2, 4 partitions, binary.?   15746 2D interior faces, zone  3, binary.?     306 2D wall faces, zone  4, binary.?      29 2D pressure-outlet faces, zone  5, binary.?      29 2D velocity-inlet faces, zone  6, binary.?      58 2D symmetry faces, zone  7, binary.?    5530 nodes, binary.?5530 node flags, binary.??Building...?     mesh?	distributing mesh?		parts....,?		faces....,?		nodes....,?		cells....,?        bandwidth reduction using Reverse Cuthill-McKee: 2604/103 = 25.2816?     materials,?     interface,?     domains,?	mixture?     zones,?	tunnel?	inlet?	exit?	airfoil?	interior-unspecified?	unspecified?     parallel,?Done.???  iter  continuity  x-velocity  y-velocity           k       omega      moment  moment-coe  lift-force   lift-coef  drag-force   drag-coef     time/iter?readReportDefinitionDataFromFile done?readReportDefinitionDataFromFile done?readReportDefinitionDataFromFile done?readReportDefinitionDataFromFile done?readReportDefinitionDataFromFile done?readReportDefinitionDataFromFile done?readReportDefinitionDataFromFile done?readReportDefinitionDataFromFile done?readReportDefinitionDataFromFile done?readReportDefinitionDataFromFile done?readReportDefinitionDataFromFile done?readReportDefinitionDataFromFile done?readReportDefinitionDataFromFile done?readReportDefinitionDataFromFile done?readReportDefinitionDataFromFile done?readReportDefinitionDataFromFile done?readReportDefinitionDataFromFile done?readReportDefinitionDataFromFile done?readReportDefinitionDataFromFile done?readReportDefinitionDataFromFile done?readReportDefinitionDataFromFile done?    10  8.9492e-02  1.0619e-04  9.2576e-05  8.8856e-03  9.6103e-03  1.0167e+01  5.1924e-02  6.8364e+01  3.4913e-01  5.3093e+00  2.7114e-02  0:00:00  990?    20  5.6033e-02  9.7950e-05  7.8922e-05  1.4412e-03  1.5314e-03  1.1367e+01  5.8051e-02  8.5233e+01  4.3528e-01  5.2215e+00  2.6666e-02  0:15:21  980?    30  4.6061e-02  7.8047e-05  6.1358e-05  4.4076e-04  4.2343e-04  1.1049e+01  5.6426e-02  9.4104e+01  4.8058e-01  4.6761e+00  2.3880e-02  0:01:38  970?    40  3.0761e-02  5.7430e-05  3.3141e-05  1.9906e-04  1.8759e-04  1.0646e+01  5.4367e-02  9.9753e+01  5.0943e-01  4.1271e+00  2.1077e-02  0:00:36  960?    50  1.9876e-02  3.5407e-05  2.1722e-05  1.7805e-04  1.3326e-04  1.0312e+01  5.2663e-02  1.0333e+02  5.2768e-01  3.6666e+00  1.8725e-02  0:00:29  950?    60  1.3365e-02  2.0739e-05  1.3083e-05  2.0280e-04  1.0733e-04  1.0028e+01  5.1212e-02  1.0539e+02  5.3822e-01  3.3043e+00  1.6875e-02  0:00:03  940?    70  1.0026e-02  1.2854e-05  6.7367e-06  2.1610e-04  9.2326e-05  9.6406e+00  4.9234e-02  1.0603e+02  5.4149e-01  3.0109e+00  1.5376e-02  0:00:25  930?    80  8.1088e-03  9.2011e-06  3.4357e-06  2.0287e-04  7.3536e-05  9.1246e+00  4.6599e-02  1.0557e+02  5.3916e-01  2.7726e+00  1.4159e-02  0:00:03  920?    90  6.3235e-03  6.9238e-06  2.4460e-06  1.6268e-04  5.3020e-05  8.6391e+00  4.4119e-02  1.0471e+02  5.3476e-01  2.6002e+00  1.3279e-02  0:00:25  910?   100  5.3991e-03  5.5008e-06  2.4593e-06  1.1597e-04  3.6797e-05  8.2574e+00  4.2170e-02  1.0394e+02  5.3081e-01  2.4821e+00  1.2676e-02  0:00:27  900?   110  4.3605e-03  4.4795e-06  2.3475e-06  8.1248e-05  2.6060e-05  8.0052e+00  4.0882e-02  1.0347e+02  5.2840e-01  2.4059e+00  1.2287e-02  0:00:03  890??  iter  continuity  x-velocity  y-velocity           k       omega      moment  moment-coe  lift-force   lift-coef  drag-force   drag-coef     time/iter?   120  3.3315e-03  3.6914e-06  1.8448e-06  6.7900e-05  1.8991e-05  7.9187e+00  4.0440e-02  1.0345e+02  5.2829e-01  2.3707e+00  1.2107e-02  0:00:24  880?   130  3.1122e-03  3.5759e-06  1.7245e-06  6.3756e-05  1.4948e-05  7.9700e+00  4.0702e-02  1.0387e+02  5.3044e-01  2.3651e+00  1.2078e-02  0:00:39  870?   140  3.1540e-03  3.7750e-06  2.3002e-06  5.5419e-05  1.2086e-05  8.1084e+00  4.1409e-02  1.0466e+02  5.3450e-01  2.3710e+00  1.2108e-02  0:00:04  860?   150  2.8702e-03  3.8307e-06  2.8812e-06  4.6551e-05  1.0906e-05  8.2893e+00  4.2333e-02  1.0568e+02  5.3968e-01  2.3812e+00  1.2160e-02  0:00:23  850?   160  2.7940e-03  3.7549e-06  3.1171e-06  3.9991e-05  1.3380e-05  8.5175e+00  4.3498e-02  1.0691e+02  5.4599e-01  2.3927e+00  1.2219e-02  0:00:02  840?   170  2.7630e-03  3.6513e-06  3.1467e-06  3.4533e-05  1.9048e-05  8.7525e+00  4.4699e-02  1.0820e+02  5.5258e-01  2.3995e+00  1.2254e-02  0:00:23  830?   180  2.2405e-03  3.4495e-06  3.0051e-06  2.3851e-05  1.1367e-05  8.9945e+00  4.5934e-02  1.0959e+02  5.5968e-01  2.3996e+00  1.2255e-02  0:00:24  820?   190  2.0233e-03  3.2976e-06  2.7902e-06  2.0547e-05  1.2661e-05  9.2135e+00  4.7053e-02  1.1089e+02  5.6630e-01  2.3940e+00  1.2226e-02  0:00:03  810?   200  1.7248e-03  3.0882e-06  2.4390e-06  1.7741e-05  1.2589e-05  9.3907e+00  4.7958e-02  1.1203e+02  5.7215e-01  2.3782e+00  1.2145e-02  0:00:22  800?   210  1.5567e-03  2.8612e-06  2.0221e-06  1.5862e-05  1.3245e-05  9.5322e+00  4.8680e-02  1.1302e+02  5.7721e-01  2.3563e+00  1.2033e-02  0:00:44  790?   220  1.3408e-03  2.5570e-06  1.5766e-06  1.3777e-05  1.3222e-05  9.6361e+00  4.9211e-02  1.1384e+02  5.8138e-01  2.3301e+00  1.1900e-02  0:00:05  780??  iter  continuity  x-velocity  y-velocity           k       omega      moment  moment-coe  lift-force   lift-coef  drag-force   drag-coef     time/iter?   230  1.1694e-03  2.2224e-06  1.1941e-06  1.2654e-05  1.2938e-05  9.7084e+00  4.9580e-02  1.1449e+02  5.8470e-01  2.3025e+00  1.1759e-02  0:00:21  770?   240  1.0493e-03  1.8878e-06  8.8043e-07  1.2229e-05  1.2324e-05  9.7569e+00  4.9828e-02  1.1500e+02  5.8731e-01  2.2754e+00  1.1621e-02  0:00:02  760?   250  9.3746e-04  1.5639e-06  6.4117e-07  1.2161e-05  1.1490e-05  9.7846e+00  4.9969e-02  1.1538e+02  5.8926e-01  2.2503e+00  1.1492e-02  0:00:20  750?   260  8.7740e-04  1.2758e-06  4.7614e-07  1.2304e-05  1.0576e-05  9.7953e+00  5.0024e-02  1.1565e+02  5.9064e-01  2.2277e+00  1.1377e-02  0:00:22  740?   270  8.2456e-04  1.0249e-06  3.5058e-07  1.2228e-05  9.5693e-06  9.7981e+00  5.0038e-02  1.1587e+02  5.9171e-01  2.2074e+00  1.1273e-02  0:00:02  730?   280  7.9232e-04  8.2855e-07  2.6908e-07  1.1925e-05  8.6706e-06  9.7963e+00  5.0029e-02  1.1600e+02  5.9241e-01  2.1921e+00  1.1195e-02  0:00:20  720?   290  7.3517e-04  6.6225e-07  2.1743e-07  1.1071e-05  7.7635e-06  9.7945e+00  5.0020e-02  1.1611e+02  5.9297e-01  2.1798e+00  1.1132e-02  0:00:02  710?   300  6.8398e-04  5.3583e-07  1.8644e-07  9.9301e-06  6.9178e-06  9.7941e+00  5.0017e-02  1.1620e+02  5.9344e-01  2.1705e+00  1.1085e-02  0:00:19  700?   310  6.2439e-04  4.3937e-07  1.7888e-07  8.6515e-06  6.1976e-06  9.7967e+00  5.0031e-02  1.1629e+02  5.9387e-01  2.1638e+00  1.1050e-02  0:00:21  690?   320  5.5377e-04  3.7031e-07  1.8215e-07  7.3412e-06  5.6357e-06  9.8031e+00  5.0064e-02  1.1637e+02  5.9430e-01  2.1592e+00  1.1027e-02  0:00:02  680?   330  5.1060e-04  3.3297e-07  1.9545e-07  6.4727e-06  5.2706e-06  9.8131e+00  5.0114e-02  1.1646e+02  5.9475e-01  2.1562e+00  1.1012e-02  0:00:18  670??  iter  continuity  x-velocity  y-velocity           k       omega      moment  moment-coe  lift-force   lift-coef  drag-force   drag-coef     time/iter?   340  5.0415e-04  3.1907e-07  2.1296e-07  6.0500e-06  5.0649e-06  9.8253e+00  5.0177e-02  1.1655e+02  5.9522e-01  2.1541e+00  1.1001e-02  0:00:20  660?   350  4.7683e-04  3.0893e-07  2.2251e-07  5.5708e-06  4.8787e-06  9.8386e+00  5.0245e-02  1.1664e+02  5.9568e-01  2.1527e+00  1.0994e-02  0:00:02  650?   360  4.5876e-04  2.9661e-07  2.1879e-07  5.1344e-06  4.7608e-06  9.8546e+00  5.0326e-02  1.1674e+02  5.9620e-01  2.1514e+00  1.0987e-02  0:00:17  640?   370  4.4538e-04  2.8810e-07  2.1523e-07  4.7848e-06  4.6497e-06  9.8676e+00  5.0393e-02  1.1683e+02  5.9662e-01  2.1501e+00  1.0981e-02  0:00:02  630?   380  4.3374e-04  2.7422e-07  2.0085e-07  4.4959e-06  4.6737e-06  9.8823e+00  5.0468e-02  1.1692e+02  5.9711e-01  2.1487e+00  1.0973e-02  0:00:17  620?   390  4.2101e-04  2.6270e-07  1.8634e-07  4.2446e-06  4.5985e-06  9.8930e+00  5.0523e-02  1.1699e+02  5.9748e-01  2.1472e+00  1.0965e-02  0:00:18  610?   400  4.0943e-04  2.4498e-07  1.6789e-07  4.0592e-06  4.6021e-06  9.9033e+00  5.0575e-02  1.1707e+02  5.9785e-01  2.1455e+00  1.0957e-02  0:00:02  600?   410  4.0100e-04  2.2904e-07  1.4674e-07  3.9163e-06  4.6047e-06  9.9123e+00  5.0621e-02  1.1713e+02  5.9818e-01  2.1437e+00  1.0947e-02  0:00:16  590?   420  3.8860e-04  2.1234e-07  1.2966e-07  3.7723e-06  4.5562e-06  9.9197e+00  5.0659e-02  1.1719e+02  5.9847e-01  2.1419e+00  1.0939e-02  0:01:34  580?   430  3.7685e-04  1.9294e-07  1.1348e-07  3.6281e-06  4.4577e-06  9.9255e+00  5.0689e-02  1.1724e+02  5.9871e-01  2.1402e+00  1.0930e-02  0:00:10  570?   440  3.6859e-04  1.7857e-07  9.9154e-08  3.4767e-06  4.3266e-06  9.9299e+00  5.0711e-02  1.1727e+02  5.9891e-01  2.1385e+00  1.0921e-02  0:00:16  560??  iter  continuity  x-velocity  y-velocity           k       omega      moment  moment-coe  lift-force   lift-coef  drag-force   drag-coef     time/iter?   450  3.5489e-04  1.6213e-07  8.5208e-08  3.2859e-06  4.1274e-06  9.9331e+00  5.0728e-02  1.1731e+02  5.9908e-01  2.1369e+00  1.0913e-02  0:00:02  550?   460  3.3665e-04  1.4723e-07  7.2432e-08  2.8085e-06  3.6112e-06  9.9352e+00  5.0738e-02  1.1733e+02  5.9921e-01  2.1355e+00  1.0906e-02  0:00:15  540?   470  2.8710e-04  1.3179e-07  5.8363e-08  1.4145e-06  1.9206e-06  9.9357e+00  5.0741e-02  1.1735e+02  5.9931e-01  2.1343e+00  1.0899e-02  0:00:16  530?   480  2.4974e-04  1.1995e-07  4.8744e-08  9.1496e-07  9.5483e-07  9.9343e+00  5.0734e-02  1.1736e+02  5.9937e-01  2.1327e+00  1.0892e-02  0:00:02  520?   490  2.3844e-04  1.1355e-07  4.4763e-08  7.7190e-07  6.2183e-07  9.9356e+00  5.0740e-02  1.1738e+02  5.9943e-01  2.1320e+00  1.0888e-02  0:00:14  510?   500  2.4228e-04  1.0805e-07  4.9611e-08  8.1587e-07  5.2115e-07  9.9406e+00  5.0766e-02  1.1740e+02  5.9953e-01  2.1322e+00  1.0889e-02  0:00:01  500?   510  2.5531e-04  1.1095e-07  6.5848e-08  1.0030e-06  5.5620e-07  9.9498e+00  5.0813e-02  1.1742e+02  5.9968e-01  2.1334e+00  1.0895e-02  0:00:13  490?   520  2.7419e-04  1.2831e-07  9.0110e-08  1.0965e-06  5.5843e-07  9.9630e+00  5.0880e-02  1.1747e+02  5.9989e-01  2.1353e+00  1.0905e-02  0:00:14  480?   530  2.7129e-04  1.4357e-07  1.1455e-07  9.6998e-07  5.2110e-07  9.9772e+00  5.0953e-02  1.1751e+02  6.0014e-01  2.1370e+00  1.0913e-02  0:00:02  470?   540  2.6711e-04  1.4792e-07  1.2663e-07  7.4013e-07  4.4759e-07  9.9902e+00  5.1019e-02  1.1756e+02  6.0039e-01  2.1381e+00  1.0919e-02  0:00:13  460?   550  2.5116e-04  1.4524e-07  1.1908e-07  5.2108e-07  3.9398e-07  1.0000e+01  5.1070e-02  1.1761e+02  6.0062e-01  2.1383e+00  1.0920e-02  0:01:31  450??  iter  continuity  x-velocity  y-velocity           k       omega      moment  moment-coe  lift-force   lift-coef  drag-force   drag-coef     time/iter?   560  2.4313e-04  1.3879e-07  1.0256e-07  3.8093e-07  3.9821e-07  1.0006e+01  5.1102e-02  1.1765e+02  6.0082e-01  2.1377e+00  1.0917e-02  0:00:10  440?   570  2.3699e-04  1.3121e-07  7.7447e-08  2.7986e-07  3.8003e-07  1.0009e+01  5.1116e-02  1.1767e+02  6.0095e-01  2.1365e+00  1.0911e-02  0:00:13  430?   580  2.3372e-04  1.2350e-07  5.6984e-08  2.7168e-07  3.8658e-07  1.0010e+01  5.1123e-02  1.1769e+02  6.0105e-01  2.1352e+00  1.0904e-02  0:00:01  420?   590  2.3380e-04  1.1594e-07  4.6285e-08  2.9432e-07  3.7701e-07  1.0011e+01  5.1127e-02  1.1771e+02  6.0113e-01  2.1340e+00  1.0898e-02  0:00:11  410?   600  2.2785e-04  1.0367e-07  4.1435e-08  3.3036e-07  3.5410e-07  1.0012e+01  5.1130e-02  1.1772e+02  6.0118e-01  2.1331e+00  1.0894e-02  0:00:18  400?   610  2.2389e-04  9.6544e-08  3.7968e-08  3.7991e-07  3.2409e-07  1.0012e+01  5.1131e-02  1.1773e+02  6.0122e-01  2.1324e+00  1.0890e-02  0:00:02  390?   620  2.1981e-04  9.2003e-08  3.6046e-08  4.0673e-07  2.9629e-07  1.0012e+01  5.1132e-02  1.1773e+02  6.0125e-01  2.1318e+00  1.0887e-02  0:00:10  380?   630  2.1713e-04  8.6095e-08  3.4844e-08  4.1685e-07  2.6101e-07  1.0012e+01  5.1131e-02  1.1774e+02  6.0127e-01  2.1313e+00  1.0884e-02  0:00:01  370?   640  2.2119e-04  8.7774e-08  3.3634e-08  3.9910e-07  2.3527e-07  1.0012e+01  5.1130e-02  1.1774e+02  6.0128e-01  2.1309e+00  1.0883e-02  0:00:10  360?   650  2.1529e-04  8.4363e-08  3.2785e-08  3.7070e-07  2.2808e-07  1.0012e+01  5.1129e-02  1.1774e+02  6.0129e-01  2.1306e+00  1.0881e-02  0:00:10  350?   660  2.1793e-04  8.3824e-08  3.3268e-08  3.5384e-07  2.3897e-07  1.0012e+01  5.1128e-02  1.1774e+02  6.0130e-01  2.1304e+00  1.0880e-02  0:00:01  340??  iter  continuity  x-velocity  y-velocity           k       omega      moment  moment-coe  lift-force   lift-coef  drag-force   drag-coef     time/iter?   670  2.1725e-04  8.1542e-08  3.2993e-08  3.4728e-07  2.7157e-07  1.0012e+01  5.1129e-02  1.1774e+02  6.0131e-01  2.1303e+00  1.0879e-02  0:00:09  330?   680  2.1961e-04  8.0664e-08  3.2883e-08  3.8661e-07  3.5245e-07  1.0012e+01  5.1130e-02  1.1775e+02  6.0132e-01  2.1302e+00  1.0879e-02  0:00:01  320?   690  2.2404e-04  8.0932e-08  3.3257e-08  4.7874e-07  4.9381e-07  1.0012e+01  5.1131e-02  1.1775e+02  6.0133e-01  2.1302e+00  1.0879e-02  0:00:08  310?   700  2.2519e-04  8.0964e-08  3.2878e-08  6.3986e-07  7.2281e-07  1.0013e+01  5.1134e-02  1.1775e+02  6.0134e-01  2.1302e+00  1.0879e-02  0:00:09  300?   710  2.3127e-04  8.0759e-08  3.3966e-08  9.0894e-07  1.0718e-06  1.0013e+01  5.1136e-02  1.1775e+02  6.0136e-01  2.1302e+00  1.0879e-02  0:00:01  290?   720  2.4180e-04  8.0873e-08  3.5250e-08  1.2751e-06  1.5086e-06  1.0014e+01  5.1138e-02  1.1776e+02  6.0137e-01  2.1302e+00  1.0879e-02  0:00:08  280?   730  2.6006e-04  8.1195e-08  3.6268e-08  1.8794e-06  2.2127e-06  1.0014e+01  5.1141e-02  1.1776e+02  6.0139e-01  2.1302e+00  1.0879e-02  0:00:08  270?   740  3.9151e-04  9.5764e-08  5.1108e-08  5.5963e-06  8.2394e-06  1.0020e+01  5.1174e-02  1.1777e+02  6.0145e-01  2.1317e+00  1.0887e-02  0:00:01  260?   750  4.1302e-04  1.1731e-07  7.8735e-08  4.7143e-06  5.2843e-06  1.0022e+01  5.1179e-02  1.1779e+02  6.0152e-01  2.1311e+00  1.0884e-02  0:00:07  250?   760  3.4838e-04  1.2882e-07  9.1786e-08  2.7234e-06  3.6510e-06  1.0006e+01  5.1098e-02  1.1776e+02  6.0137e-01  2.1279e+00  1.0867e-02  0:00:01  240?   770  3.5132e-04  1.2964e-07  9.3218e-08  2.8150e-06  3.1848e-06  1.0006e+01  5.1099e-02  1.1775e+02  6.0133e-01  2.1278e+00  1.0866e-02  0:00:06  230??  iter  continuity  x-velocity  y-velocity           k       omega      moment  moment-coe  lift-force   lift-coef  drag-force   drag-coef     time/iter?   780  3.3898e-04  1.1835e-07  7.6954e-08  3.3542e-06  4.5253e-06  1.0010e+01  5.1119e-02  1.1775e+02  6.0134e-01  2.1291e+00  1.0873e-02  0:00:07  220?   790  4.3908e-04  1.2712e-07  9.0184e-08  5.7596e-06  8.3717e-06  1.0022e+01  5.1183e-02  1.1778e+02  6.0147e-01  2.1318e+00  1.0887e-02  0:00:01  210?   800  3.4160e-04  1.2539e-07  8.6689e-08  2.6264e-06  3.0018e-06  1.0009e+01  5.1115e-02  1.1776e+02  6.0140e-01  2.1287e+00  1.0871e-02  0:00:05  200?   810  3.5565e-04  1.2823e-07  9.8098e-08  3.1175e-06  3.8645e-06  1.0006e+01  5.1100e-02  1.1775e+02  6.0132e-01  2.1281e+00  1.0868e-02  0:00:06  190?   820  4.0350e-04  1.2239e-07  8.2657e-08  4.9460e-06  7.4508e-06  1.0014e+01  5.1140e-02  1.1776e+02  6.0138e-01  2.1302e+00  1.0879e-02  0:00:01  180?   830  4.1213e-04  1.2661e-07  8.9673e-08  4.8055e-06  5.9036e-06  1.0018e+01  5.1161e-02  1.1777e+02  6.0146e-01  2.1307e+00  1.0881e-02  0:00:05  170?   840  3.3758e-04  1.2459e-07  7.9753e-08  2.3790e-06  2.9705e-06  1.0005e+01  5.1093e-02  1.1775e+02  6.0134e-01  2.1280e+00  1.0867e-02  0:00:09  160?   850  3.3986e-04  1.1583e-07  8.2418e-08  3.0261e-06  3.6851e-06  1.0008e+01  5.1108e-02  1.1775e+02  6.0133e-01  2.1285e+00  1.0870e-02  0:00:01  150?   860  4.3350e-04  1.2288e-07  8.0984e-08  5.7304e-06  9.1219e-06  1.0018e+01  5.1162e-02  1.1777e+02  6.0142e-01  2.1313e+00  1.0884e-02  0:00:04  140?   870  3.8884e-04  1.2730e-07  9.1505e-08  3.7058e-06  4.1992e-06  1.0014e+01  5.1142e-02  1.1777e+02  6.0144e-01  2.1298e+00  1.0877e-02  0:00:00  130?   880  3.4793e-04  1.3062e-07  9.1446e-08  2.6879e-06  3.5156e-06  1.0005e+01  5.1095e-02  1.1775e+02  6.0133e-01  2.1279e+00  1.0867e-02  0:00:03  120??  iter  continuity  x-velocity  y-velocity           k       omega      moment  moment-coe  lift-force   lift-coef  drag-force   drag-coef     time/iter?   890  3.5363e-04  1.1708e-07  8.0761e-08  3.3929e-06  4.3522e-06  1.0009e+01  5.1115e-02  1.1775e+02  6.0134e-01  2.1289e+00  1.0872e-02  0:00:03  110?   900  4.3150e-04  1.2419e-07  8.4306e-08  5.7165e-06  8.6362e-06  1.0021e+01  5.1174e-02  1.1777e+02  6.0145e-01  2.1316e+00  1.0886e-02  0:00:20  100?   910  3.4931e-04  1.2048e-07  8.4577e-08  2.7033e-06  3.0400e-06  1.0010e+01  5.1120e-02  1.1776e+02  6.0141e-01  2.1289e+00  1.0872e-02  0:00:02   90?   920  3.4759e-04  1.2646e-07  9.0262e-08  2.8971e-06  3.5676e-06  1.0006e+01  5.1100e-02  1.1775e+02  6.0133e-01  2.1281e+00  1.0868e-02  0:00:02   80?   930  3.7177e-04  1.1369e-07  7.6139e-08  4.1009e-06  5.7522e-06  1.0012e+01  5.1128e-02  1.1775e+02  6.0136e-01  2.1296e+00  1.0876e-02  0:00:00   70?   940  4.2376e-04  1.2889e-07  8.8550e-08  5.6057e-06  7.4342e-06  1.0022e+01  5.1179e-02  1.1778e+02  6.0148e-01  2.1315e+00  1.0885e-02  0:00:02   60?   950  3.2695e-04  1.2353e-07  8.1547e-08  2.4046e-06  2.9431e-06  1.0007e+01  5.1104e-02  1.1776e+02  6.0138e-01  2.1283e+00  1.0869e-02  0:00:04   50?   960  3.6028e-04  1.2342e-07  9.1254e-08  3.3487e-06  4.1025e-06  1.0007e+01  5.1106e-02  1.1775e+02  6.0133e-01  2.1283e+00  1.0869e-02  0:00:00   40?   970  4.2006e-04  1.2098e-07  7.8737e-08  5.3067e-06  8.2780e-06  1.0016e+01  5.1150e-02  1.1776e+02  6.0140e-01  2.1306e+00  1.0881e-02  0:00:01   30?   980  4.0384e-04  1.2574e-07  8.9261e-08  4.2166e-06  4.8033e-06  1.0016e+01  5.1153e-02  1.1777e+02  6.0146e-01  2.1302e+00  1.0879e-02  0:00:00   20?   990  3.4263e-04  1.2701e-07  8.3118e-08  2.5047e-06  3.2492e-06  1.0005e+01  5.1095e-02  1.1775e+02  6.0134e-01  2.1280e+00  1.0867e-02  0:00:00   10??  iter  continuity  x-velocity  y-velocity           k       omega      moment  moment-coe  lift-force   lift-coef  drag-force   drag-coef     time/iter?  1000  3.5717e-04  1.1766e-07  8.1035e-08  3.4217e-06  4.2920e-06  1.0009e+01  5.1116e-02  1.1775e+02  6.0135e-01  2.1288e+00  1.0872e-02  0:00:00    0??Calculation complete.?Writing "P:/AE516/Project_1/Fluent/3_5DEG/NACA2408_P3_5DEG.cas"...?   10638 triangular cells, zone  2, binary.?   10638 cell partition ids, zone  2, 4 partitions, binary.?   15746 2D interior faces, zone  3, binary.?     306 2D wall faces, zone  4, binary.?      29 2D pressure-outlet faces, zone  5, binary.?      29 2D velocity-inlet faces, zone  6, binary.?      58 2D symmetry faces, zone  7, binary.?    5530 nodes, binary.?    5530 node flags, binary.?Done.??Writing "P:/AE516/Project_1/Fluent/3_5DEG/NACA2408_P3_5DEG.dat"...?Done.??Multicore SMT processors detected. Processor affinity set!?Reading "P:/AE516/Project_1/Fluent/7DEG/NACA2408_P7DEG.cas"...?Buffering for file scan...???       Clearing partially read grid.?    5516 nodes.?   10610 triangular cells, zone  2.?   15704 2D interior faces, zone  3.?     306 2D wall faces, zone  4.?      29 2D pressure-outlet faces, zone  5.?      29 2D velocity-inlet faces, zone  6.?      58 2D symmetry faces, zone  7.??Building...?     mesh?	auto partitioning mesh by Metis (fast),?	distributing mesh?		parts....,?		faces....,?		nodes....,?		cells....,?        bandwidth reduction using Reverse Cuthill-McKee: 2557/115 = 22.2348?     materials,?     interface,?     domains,?     zones,?	tunnel?	inlet?	exit?	airfoil?	interior-unspecified?	unspecified?     parallel,?Done.???  iter  continuity  x-velocity  y-velocity           k       omega   drag-coef  drag-force   lift-coef  lift-force  moment-coe      moment     time/iter?readReportDefinitionDataFromFile done?readReportDefinitionDataFromFile done?readReportDefinitionDataFromFile done?readReportDefinitionDataFromFile done?readReportDefinitionDataFromFile done?readReportDefinitionDataFromFile done?readReportDefinitionDataFromFile done?readReportDefinitionDataFromFile done?readReportDefinitionDataFromFile done?readReportDefinitionDataFromFile done?readReportDefinitionDataFromFile done?readReportDefinitionDataFromFile done?readReportDefinitionDataFromFile done?readReportDefinitionDataFromFile done?readReportDefinitionDataFromFile done?readReportDefinitionDataFromFile done?readReportDefinitionDataFromFile done?readReportDefinitionDataFromFile done?readReportDefinitionDataFromFile done?readReportDefinitionDataFromFile done?readReportDefinitionDataFromFile done?    10  9.1610e-02  1.7108e-04  1.5517e-04  8.7341e-03  9.4011e-03  5.9241e-02  1.1600e+01  5.6523e-01  1.1068e+02  5.3558e-02  1.0487e+01  0:00:00  990?    20  6.1287e-02  1.6050e-04  1.2894e-04  1.4618e-03  1.6133e-03  5.9786e-02  1.1707e+01  7.0424e-01  1.3790e+02  6.4701e-02  1.2669e+01  0:14:14  980?    30  5.2830e-02  1.3047e-04  1.0114e-04  5.5570e-04  5.0605e-04  5.3222e-02  1.0422e+01  7.7837e-01  1.5241e+02  6.2565e-02  1.2251e+01  0:01:31  970?    40  3.4906e-02  9.3763e-05  5.4413e-05  3.3059e-04  2.8320e-04  4.5872e-02  8.9824e+00  8.2382e-01  1.6131e+02  5.9214e-02  1.1595e+01  0:00:35  960?    50  2.3255e-02  5.7254e-05  3.6961e-05  3.2478e-04  2.2849e-04  3.9463e-02  7.7273e+00  8.4986e-01  1.6641e+02  5.6014e-02  1.0968e+01  0:00:04  950?    60  1.5166e-02  3.3261e-05  2.2794e-05  4.0937e-04  2.1290e-04  3.4289e-02  6.7143e+00  8.6202e-01  1.6879e+02  5.3010e-02  1.0380e+01  0:00:26  940?    70  1.1805e-02  2.0830e-05  1.2764e-05  5.0917e-04  2.1677e-04  3.0435e-02  5.9595e+00  8.6467e-01  1.6931e+02  5.0043e-02  9.7991e+00  0:02:02  930?    80  9.9621e-03  1.4738e-05  7.1417e-06  5.4927e-04  1.7387e-04  2.7667e-02  5.4175e+00  8.6080e-01  1.6856e+02  4.7375e-02  9.2767e+00  0:00:13  920?    90  8.7636e-03  1.1178e-05  5.0546e-06  5.3223e-04  1.2908e-04  2.5499e-02  4.9931e+00  8.5235e-01  1.6690e+02  4.4579e-02  8.7291e+00  0:00:26  910?   100  7.1452e-03  9.1827e-06  5.3863e-06  5.0631e-04  9.9085e-05  2.3758e-02  4.6521e+00  8.4172e-01  1.6482e+02  4.1835e-02  8.1917e+00  0:00:03  900?   110  6.1148e-03  8.8297e-06  6.6143e-06  4.3475e-04  7.8171e-05  2.1853e-02  4.2790e+00  8.2710e-01  1.6196e+02  3.7747e-02  7.3914e+00  0:00:24  890??  iter  continuity  x-velocity  y-velocity           k       omega   drag-coef  drag-force   lift-coef  lift-force  moment-coe      moment     time/iter?   120  5.1382e-03  9.2128e-06  7.7698e-06  3.0802e-04  6.3894e-05  2.0246e-02  3.9645e+00  8.1252e-01  1.5910e+02  3.3873e-02  6.6328e+00  0:00:26  880?   130  4.4265e-03  8.9408e-06  7.1742e-06  2.1381e-04  5.1881e-05  1.9474e-02  3.8133e+00  8.0263e-01  1.5717e+02  3.1558e-02  6.1795e+00  0:00:03  870?   140  4.0983e-03  8.3555e-06  5.4442e-06  2.1981e-04  4.5005e-05  1.9079e-02  3.7358e+00  7.9649e-01  1.5596e+02  2.9907e-02  5.8563e+00  0:00:23  860?   150  4.0488e-03  7.6777e-06  3.7689e-06  2.4999e-04  3.7949e-05  1.9087e-02  3.7375e+00  7.9515e-01  1.5570e+02  2.9371e-02  5.7513e+00  0:01:12  850?   160  3.9644e-03  7.0024e-06  3.4361e-06  2.5280e-04  3.1209e-05  1.9285e-02  3.7763e+00  7.9785e-01  1.5623e+02  2.9485e-02  5.7735e+00  0:00:08  840?   170  3.8317e-03  6.6040e-06  4.1946e-06  2.4926e-04  2.7420e-05  1.9376e-02  3.7941e+00  8.0314e-01  1.5727e+02  2.9736e-02  5.8227e+00  0:00:23  830?   180  3.7347e-03  6.5286e-06  4.7797e-06  2.3656e-04  2.2954e-05  1.9583e-02  3.8346e+00  8.1121e-01  1.5885e+02  3.0703e-02  6.0121e+00  0:00:02  820?   190  3.5957e-03  6.6683e-06  5.1855e-06  2.0562e-04  2.1072e-05  1.9838e-02  3.8845e+00  8.2189e-01  1.6094e+02  3.2177e-02  6.3006e+00  0:00:22  810?   200  3.2228e-03  6.7482e-06  5.5616e-06  1.7530e-04  2.1746e-05  1.9996e-02  3.9155e+00  8.3380e-01  1.6327e+02  3.3790e-02  6.6165e+00  0:00:24  800?   210  3.0635e-03  6.6980e-06  5.7389e-06  1.4602e-04  2.3412e-05  2.0037e-02  3.9235e+00  8.4617e-01  1.6569e+02  3.5427e-02  6.9371e+00  0:00:03  790?   220  2.9088e-03  6.5270e-06  5.5968e-06  1.1840e-04  2.5479e-05  2.0047e-02  3.9254e+00  8.5898e-01  1.6820e+02  3.7229e-02  7.2900e+00  0:00:21  780??  iter  continuity  x-velocity  y-velocity           k       omega   drag-coef  drag-force   lift-coef  lift-force  moment-coe      moment     time/iter?   230  2.6109e-03  6.3474e-06  5.4083e-06  9.2495e-05  2.7088e-05  2.0094e-02  3.9346e+00  8.7201e-01  1.7075e+02  3.9273e-02  7.6902e+00  0:01:21  770?   240  2.3416e-03  6.1532e-06  5.2365e-06  6.8084e-05  2.8667e-05  2.0101e-02  3.9360e+00  8.8483e-01  1.7326e+02  4.1350e-02  8.0968e+00  0:00:09  760?   250  2.0503e-03  5.9155e-06  4.9065e-06  4.7245e-05  2.9038e-05  1.9971e-02  3.9106e+00  8.9627e-01  1.7550e+02  4.3092e-02  8.4379e+00  0:00:21  750?   260  1.8412e-03  5.5340e-06  4.2288e-06  3.5713e-05  3.3399e-05  1.9698e-02  3.8570e+00  9.0618e-01  1.7744e+02  4.4471e-02  8.7080e+00  0:00:02  740?   270  1.6304e-03  5.0229e-06  3.3019e-06  2.9403e-05  3.7021e-05  1.9300e-02  3.7792e+00  9.1414e-01  1.7900e+02  4.5420e-02  8.8938e+00  0:00:20  730?   280  1.4588e-03  4.3820e-06  2.3400e-06  2.6849e-05  4.0150e-05  1.8811e-02  3.6835e+00  9.2029e-01  1.8020e+02  4.5974e-02  9.0023e+00  0:00:21  720?   290  1.2680e-03  3.6760e-06  1.5500e-06  2.7759e-05  3.7923e-05  1.8316e-02  3.5865e+00  9.2446e-01  1.8102e+02  4.6214e-02  9.0493e+00  0:00:02  710?   300  1.1273e-03  2.9449e-06  1.0387e-06  2.9800e-05  3.4883e-05  1.7835e-02  3.4924e+00  9.2738e-01  1.8159e+02  4.6266e-02  9.0595e+00  0:00:19  700?   310  1.0150e-03  2.2730e-06  7.3649e-07  3.0816e-05  3.1745e-05  1.7427e-02  3.4124e+00  9.2905e-01  1.8192e+02  4.6176e-02  9.0419e+00  0:00:02  690?   320  8.6832e-04  1.6944e-06  5.4563e-07  2.9117e-05  2.7386e-05  1.7054e-02  3.3394e+00  9.3003e-01  1.8211e+02  4.5996e-02  9.0066e+00  0:00:18  680?   330  7.4615e-04  1.2446e-06  4.3176e-07  2.6036e-05  2.3024e-05  1.6748e-02  3.2795e+00  9.3041e-01  1.8219e+02  4.5767e-02  8.9618e+00  0:00:20  670??  iter  continuity  x-velocity  y-velocity           k       omega   drag-coef  drag-force   lift-coef  lift-force  moment-coe      moment     time/iter?   340  6.6950e-04  9.4842e-07  3.7703e-07  2.2087e-05  1.9445e-05  1.6512e-02  3.2332e+00  9.3048e-01  1.8220e+02  4.5547e-02  8.9187e+00  0:00:02  660?   350  6.2712e-04  7.8438e-07  3.3932e-07  1.7808e-05  1.6476e-05  1.6335e-02  3.1987e+00  9.3045e-01  1.8219e+02  4.5360e-02  8.8821e+00  0:00:18  650?   360  5.9472e-04  6.6841e-07  2.8417e-07  1.5628e-05  1.4062e-05  1.6216e-02  3.1754e+00  9.3051e-01  1.8221e+02  4.5237e-02  8.8581e+00  0:00:19  640?   370  5.7159e-04  6.2740e-07  2.5773e-07  1.4356e-05  1.2613e-05  1.6150e-02  3.1623e+00  9.3077e-01  1.8226e+02  4.5199e-02  8.8506e+00  0:00:02  630?   380  5.5420e-04  6.5638e-07  3.0367e-07  1.4235e-05  1.1839e-05  1.6119e-02  3.1563e+00  9.3128e-01  1.8236e+02  4.5236e-02  8.8578e+00  0:00:17  620?   390  5.5103e-04  7.0279e-07  3.9950e-07  1.4575e-05  1.1702e-05  1.6111e-02  3.1548e+00  9.3208e-01  1.8251e+02  4.5339e-02  8.8780e+00  0:00:02  610?   400  5.6715e-04  7.5647e-07  5.0007e-07  1.4971e-05  1.2427e-05  1.6117e-02  3.1560e+00  9.3305e-01  1.8270e+02  4.5483e-02  8.9062e+00  0:00:16  600?   410  5.9020e-04  7.8431e-07  5.7274e-07  1.5681e-05  1.4555e-05  1.6131e-02  3.1587e+00  9.3427e-01  1.8294e+02  4.5682e-02  8.9451e+00  0:00:18  590?   420  6.6447e-04  8.1815e-07  6.3505e-07  1.6915e-05  1.9872e-05  1.6147e-02  3.1618e+00  9.3566e-01  1.8321e+02  4.5912e-02  8.9902e+00  0:00:02  580?   430  7.0520e-04  8.1820e-07  6.5859e-07  1.7585e-05  2.2327e-05  1.6148e-02  3.1620e+00  9.3710e-01  1.8350e+02  4.6129e-02  9.0326e+00  0:00:15  570?   440  7.0851e-04  8.2345e-07  6.7054e-07  1.7066e-05  2.4580e-05  1.6158e-02  3.1639e+00  9.3856e-01  1.8378e+02  4.6388e-02  9.0834e+00  0:00:17  560??  iter  continuity  x-velocity  y-velocity           k       omega   drag-coef  drag-force   lift-coef  lift-force  moment-coe      moment     time/iter?   450  6.9866e-04  8.0521e-07  6.6015e-07  1.6388e-05  2.6559e-05  1.6157e-02  3.1637e+00  9.4001e-01  1.8407e+02  4.6626e-02  9.1299e+00  0:00:02  550?   460  6.6389e-04  7.7381e-07  6.2578e-07  1.5695e-05  2.6180e-05  1.6145e-02  3.1615e+00  9.4152e-01  1.8436e+02  4.6876e-02  9.1789e+00  0:00:15  540?   470  6.4666e-04  7.3392e-07  5.6350e-07  1.5190e-05  2.4990e-05  1.6109e-02  3.1543e+00  9.4272e-01  1.8460e+02  4.7036e-02  9.2102e+00  0:00:29  530?   480  5.8615e-04  6.8341e-07  4.8563e-07  1.3891e-05  2.6154e-05  1.6069e-02  3.1465e+00  9.4386e-01  1.8482e+02  4.7191e-02  9.2406e+00  0:00:03  520?   490  5.7307e-04  6.2628e-07  4.0504e-07  1.3432e-05  2.6003e-05  1.6026e-02  3.1381e+00  9.4486e-01  1.8502e+02  4.7326e-02  9.2671e+00  0:00:14  510?   500  5.5822e-04  5.6279e-07  3.3396e-07  1.3320e-05  2.5477e-05  1.5975e-02  3.1282e+00  9.4566e-01  1.8517e+02  4.7415e-02  9.2845e+00  0:00:01  500?   510  5.2387e-04  5.0028e-07  2.6786e-07  1.2546e-05  2.5327e-05  1.5924e-02  3.1181e+00  9.4634e-01  1.8531e+02  4.7485e-02  9.2981e+00  0:00:13  490?   520  5.0910e-04  4.3688e-07  2.1379e-07  1.2309e-05  2.5155e-05  1.5874e-02  3.1084e+00  9.4687e-01  1.8541e+02  4.7529e-02  9.3067e+00  0:00:14  480?   530  4.9875e-04  3.7906e-07  1.7279e-07  1.2228e-05  2.5056e-05  1.5828e-02  3.0994e+00  9.4728e-01  1.8549e+02  4.7558e-02  9.3124e+00  0:00:02  470?   540  4.9439e-04  3.3174e-07  1.4099e-07  1.2181e-05  2.4816e-05  1.5787e-02  3.0912e+00  9.4760e-01  1.8555e+02  4.7573e-02  9.3154e+00  0:00:13  460?   550  4.8227e-04  2.8936e-07  1.1700e-07  1.2106e-05  2.4556e-05  1.5750e-02  3.0841e+00  9.4784e-01  1.8560e+02  4.7580e-02  9.3167e+00  0:00:01  450??  iter  continuity  x-velocity  y-velocity           k       omega   drag-coef  drag-force   lift-coef  lift-force  moment-coe      moment     time/iter?   560  4.8184e-04  2.5786e-07  1.0236e-07  1.1963e-05  2.4309e-05  1.5719e-02  3.0780e+00  9.4803e-01  1.8564e+02  4.7581e-02  9.3171e+00  0:00:12  440?   570  4.7909e-04  2.3291e-07  9.3781e-08  1.1819e-05  2.4116e-05  1.5694e-02  3.0730e+00  9.4818e-01  1.8567e+02  4.7582e-02  9.3172e+00  0:00:13  430?   580  4.6962e-04  2.0802e-07  8.8539e-08  1.1434e-05  2.3862e-05  1.5673e-02  3.0690e+00  9.4832e-01  1.8569e+02  4.7584e-02  9.3176e+00  0:00:01  420?   590  4.7107e-04  1.9664e-07  8.8058e-08  1.1145e-05  2.3668e-05  1.5659e-02  3.0661e+00  9.4846e-01  1.8572e+02  4.7591e-02  9.3190e+00  0:00:11  410?   600  4.6652e-04  1.9028e-07  9.0799e-08  1.0980e-05  2.3533e-05  1.5648e-02  3.0641e+00  9.4860e-01  1.8575e+02  4.7604e-02  9.3214e+00  0:00:12  400?   610  4.6627e-04  1.8700e-07  9.7280e-08  1.0888e-05  2.3447e-05  1.5642e-02  3.0628e+00  9.4875e-01  1.8578e+02  4.7621e-02  9.3249e+00  0:00:01  390?   620  4.6180e-04  1.8666e-07  1.0445e-07  1.0799e-05  2.3398e-05  1.5637e-02  3.0620e+00  9.4891e-01  1.8581e+02  4.7644e-02  9.3293e+00  0:00:10  380?   630  4.6014e-04  1.8648e-07  1.0811e-07  1.0703e-05  2.3367e-05  1.5634e-02  3.0613e+00  9.4909e-01  1.8584e+02  4.7669e-02  9.3342e+00  0:00:01  370?   640  4.6057e-04  1.8545e-07  1.1021e-07  1.0601e-05  2.3361e-05  1.5631e-02  3.0608e+00  9.4927e-01  1.8588e+02  4.7696e-02  9.3394e+00  0:00:10  360?   650  4.5900e-04  1.8248e-07  1.1064e-07  1.0508e-05  2.3378e-05  1.5629e-02  3.0603e+00  9.4945e-01  1.8591e+02  4.7723e-02  9.3448e+00  0:00:10  350?   660  4.5604e-04  1.8133e-07  1.0805e-07  1.0434e-05  2.3397e-05  1.5625e-02  3.0596e+00  9.4963e-01  1.8595e+02  4.7750e-02  9.3500e+00  0:00:01  340??  iter  continuity  x-velocity  y-velocity           k       omega   drag-coef  drag-force   lift-coef  lift-force  moment-coe      moment     time/iter?   670  4.5582e-04  1.7553e-07  1.0477e-07  1.0373e-05  2.3424e-05  1.5621e-02  3.0588e+00  9.4980e-01  1.8598e+02  4.7774e-02  9.3547e+00  0:00:09  330?   680  4.5172e-04  1.7224e-07  1.0016e-07  1.0318e-05  2.3448e-05  1.5616e-02  3.0579e+00  9.4996e-01  1.8601e+02  4.7796e-02  9.3590e+00  0:00:10  320?   690  4.5027e-04  1.6752e-07  9.4991e-08  1.0279e-05  2.3470e-05  1.5611e-02  3.0569e+00  9.5011e-01  1.8604e+02  4.7816e-02  9.3631e+00  0:00:01  310?   700  4.5068e-04  1.6393e-07  9.0643e-08  1.0236e-05  2.3490e-05  1.5607e-02  3.0560e+00  9.5024e-01  1.8607e+02  4.7836e-02  9.3669e+00  0:00:08  300?   710  4.4907e-04  1.5830e-07  8.7179e-08  1.0190e-05  2.3504e-05  1.5602e-02  3.0550e+00  9.5037e-01  1.8610e+02  4.7853e-02  9.3702e+00  0:00:47  290?   720  4.5180e-04  1.5546e-07  8.4037e-08  1.0151e-05  2.3504e-05  1.5596e-02  3.0539e+00  9.5048e-01  1.8612e+02  4.7867e-02  9.3730e+00  0:00:05  280?   730  4.5618e-04  1.5026e-07  7.9908e-08  1.0107e-05  2.3497e-05  1.5590e-02  3.0527e+00  9.5058e-01  1.8614e+02  4.7878e-02  9.3751e+00  0:00:08  270?   740  4.4748e-04  1.4579e-07  7.4147e-08  1.0072e-05  2.3488e-05  1.5584e-02  3.0515e+00  9.5066e-01  1.8615e+02  4.7885e-02  9.3766e+00  0:00:01  260?   750  4.4517e-04  1.4174e-07  6.8821e-08  1.0042e-05  2.3476e-05  1.5578e-02  3.0504e+00  9.5073e-01  1.8617e+02  4.7892e-02  9.3779e+00  0:00:07  250?   760  4.4006e-04  1.3587e-07  6.5260e-08  1.0012e-05  2.3447e-05  1.5573e-02  3.0495e+00  9.5079e-01  1.8618e+02  4.7898e-02  9.3791e+00  0:00:07  240?   770  4.3927e-04  1.3364e-07  6.3105e-08  9.9927e-06  2.3418e-05  1.5568e-02  3.0485e+00  9.5084e-01  1.8619e+02  4.7901e-02  9.3796e+00  0:00:01  230??  iter  continuity  x-velocity  y-velocity           k       omega   drag-coef  drag-force   lift-coef  lift-force  moment-coe      moment     time/iter?   780  4.4088e-04  1.3140e-07  6.0149e-08  9.9687e-06  2.3389e-05  1.5563e-02  3.0475e+00  9.5088e-01  1.8619e+02  4.7902e-02  9.3798e+00  0:00:06  220?   790  4.4106e-04  1.2945e-07  5.9007e-08  9.9358e-06  2.3365e-05  1.5559e-02  3.0467e+00  9.5091e-01  1.8620e+02  4.7903e-02  9.3800e+00  0:00:34  210?   800  4.3827e-04  1.2730e-07  5.7511e-08  9.9097e-06  2.3349e-05  1.5556e-02  3.0461e+00  9.5093e-01  1.8620e+02  4.7904e-02  9.3802e+00  0:00:03  200?   810  4.3673e-04  1.2478e-07  5.7572e-08  9.8925e-06  2.3329e-05  1.5554e-02  3.0456e+00  9.5096e-01  1.8621e+02  4.7906e-02  9.3806e+00  0:00:05  190?   820  4.3558e-04  1.2565e-07  5.6613e-08  9.8757e-06  2.3316e-05  1.5552e-02  3.0452e+00  9.5098e-01  1.8621e+02  4.7908e-02  9.3811e+00  0:00:01  180?   830  4.3649e-04  1.2261e-07  5.7279e-08  9.8593e-06  2.3304e-05  1.5550e-02  3.0450e+00  9.5101e-01  1.8622e+02  4.7911e-02  9.3816e+00  0:00:05  170?   840  4.3687e-04  1.2526e-07  5.7774e-08  9.8466e-06  2.3294e-05  1.5549e-02  3.0448e+00  9.5103e-01  1.8622e+02  4.7914e-02  9.3822e+00  0:00:05  160?   850  4.3693e-04  1.2486e-07  5.7224e-08  9.8321e-06  2.3289e-05  1.5548e-02  3.0446e+00  9.5105e-01  1.8623e+02  4.7917e-02  9.3828e+00  0:00:00  150?   860  4.3686e-04  1.2176e-07  5.7216e-08  9.8200e-06  2.3289e-05  1.5548e-02  3.0444e+00  9.5108e-01  1.8623e+02  4.7920e-02  9.3834e+00  0:00:04  140?   870  4.2993e-04  1.2169e-07  5.6671e-08  9.8094e-06  2.3284e-05  1.5547e-02  3.0443e+00  9.5110e-01  1.8624e+02  4.7924e-02  9.3841e+00  0:00:00  130?   880  4.3498e-04  1.2142e-07  5.7149e-08  9.8027e-06  2.3286e-05  1.5546e-02  3.0442e+00  9.5113e-01  1.8624e+02  4.7927e-02  9.3847e+00  0:00:03  120??  iter  continuity  x-velocity  y-velocity           k       omega   drag-coef  drag-force   lift-coef  lift-force  moment-coe      moment     time/iter?   890  4.3280e-04  1.2102e-07  5.6544e-08  9.7963e-06  2.3291e-05  1.5546e-02  3.0441e+00  9.5115e-01  1.8625e+02  4.7930e-02  9.3854e+00  0:00:03  110?   900  4.3445e-04  1.2120e-07  5.6390e-08  9.7892e-06  2.3292e-05  1.5545e-02  3.0439e+00  9.5117e-01  1.8625e+02  4.7933e-02  9.3860e+00  0:00:00  100?   910  4.3374e-04  1.2043e-07  5.6105e-08  9.7801e-06  2.3292e-05  1.5544e-02  3.0438e+00  9.5119e-01  1.8626e+02  4.7936e-02  9.3865e+00  0:00:02   90?   920  4.3162e-04  1.1968e-07  5.6236e-08  9.7758e-0
[...]
pt_accept: error: accept failed: Invalid argument??999999: mpt_accept: error: accept failed: Invalid argument??999999: mpt_accept: error: accept failed: Invalid argument??999999: mpt_accept: error: accept failed: Invalid argument??999999: mpt_accept: error: accept failed: Invalid argument??999999: mpt_accept: error: accept failed: Invalid argument??999999: mpt_accept: error: accept failed: Invalid argument??999999: mpt_accept: error: accept failed: Invalid argument??999999: mpt_accept: error: accept failed: Invalid argument??999999: mpt_accept: error: accept failed: Invalid argument??999999: mpt_accept: error: accept failed: Invalid argument??999999: mpt_accept: error: accept failed: Invalid argument??999999: mpt_accept: error: accept failed: Invalid argument??999999: mpt_accept: error: accept failed: Invalid argument??999999: mpt_accept: error: accept failed: Invalid argument??999999: mpt_accept: error: accept failed: Invalid argument??999999: mpt_accept: error: accept failed: Invalid argument??999999: mpt_accept: error: accept failed: Invalid argument??999999: mpt_accept: error: accept failed: Invalid argument??999999: mpt_accept: error: accept failed: Invalid argument??999999: mpt_accept: error: accept failed: Invalid argument??999999: mpt_accept: error: accept failed: Invalid argument??999999: mpt_accept: error: accept failed: Invalid argument??999999: mpt_accept: error: accept failed: Invalid argument??999999: mpt_accept: error: accept failed: Invalid argument??999999: mpt_accept: error: accept failed: Invalid argument??999999: mpt_accept: error: accept failed: Invalid argument??999999: mpt_accept: error: accept failed: Invalid argument??999999: mpt_accept: error: accept failed: Invalid argument??999999: mpt_accept: error: accept failed: Invalid argument??999999: mpt_accept: error: accept failed: Invalid argument??999999: mpt_accept: error: accept failed: Invalid argument??999999: mpt_accept: error: accept failed: Invalid argument??999999: mpt_accept: error: accept failed: Invalid argument??999999: mpt_accept: error: accept failed: Invalid argument??999999: mpt_accept: error: accept failed: Invalid argument??999999: mpt_accept: error: accept failed: Invalid argument??999999: mpt_accept: error: accept failed: Invalid argument??999999: mpt_accept: error: accept failed: Invalid argument??999999: mpt_accept: error: accept failed: Invalid argument??999999: mpt_accept: error: accept failed: Invalid argument??999999: mpt_accept: error: accept failed: Invalid argument??999999: mpt_accept: error: accept failed: Invalid argument??999999: mpt_accept: error: accept failed: Invalid argument??999999: mpt_accept: error: accept failed: Invalid argument??999999: mpt_accept: error: accept failed: Invalid argument??999999: mpt_accept: error: accept failed: Invalid argument??999999: mpt_accept: error: accept failed: Invalid argument??999999: mpt_accept: error: accept failed: Invalid argument??999999: mpt_accept: error: accept failed: Invalid argument??999999: mpt_accept: error: accept failed: Invalid argument??999999: mpt_accept: error: accept failed: Invalid argument??999999: mpt_accept: error: accept failed: Invalid argument??999999: mpt_accept: error: accept failed: Invalid argument??999999: mpt_accept: error: accept failed: Invalid argument??999999: mpt_accept: error: accept failed: Invalid argument??999999: mpt_accept: error: accept failed: Invalid argument??999999: mpt_accept: error: accept failed: Invalid argument??999999: mpt_accept: error: accept failed: Invalid argument??999999: mpt_accept: error: accept failed: Invalid argument??999999: mpt_accept: error: accept failed: Invalid argument??999999: mpt_accept: error: accept failed: Invalid argument??999999: mpt_accept: error: accept failed: Invalid argument??999999: mpt_accept: error: accept failed: Invalid argument??999999: mpt_accept: error: accept failed: Invalid argument??999999: mpt_accept: error: accept failed: Invalid argument??999999: mpt_accept: error: accept failed: Invalid argument??999999: mpt_accept: error: accept failed: Invalid argument??999999: mpt_accept: error: accept failed: Invalid argument??999999: mpt_accept: error: accept failed: Invalid argument??999999: mpt_accept: error: accept failed: Invalid argument??999999: mpt_accept: error: accept failed: Invalid argument??999999: mpt_accept: error: accept failed: Invalid argument??999999: mpt_accept: error: accept failed: Invalid argument??999999: mpt_accept: error: accept failed: Invalid argument??999999: mpt_accept: error: accept failed: Invalid argument??999999: mpt_accept: error: accept failed: Invalid argument??999999: mpt_accept: error: accept failed: Invalid argument??999999: mpt_accept: error: accept failed: Invalid argument??999999: mpt_accept: error: accept failed: Invalid argument??999999: mpt_accept: error: accept failed: Invalid argument??999999: mpt_accept: error: accept failed: Invalid argument??999999: mpt_accept: error: accept failed: Invalid argument??999999: mpt_accept: error: accept failed: Invalid argument??999999: mpt_accept: error: accept failed: Invalid argument??999999: mpt_accept: error: accept failed: Invalid argument??999999: mpt_accept: error: accept failed: Invalid argument??999999: mpt_accept: error: accept failed: Invalid argument??999999: mpt_accept: error: accept failed: Invalid argument??999999: mpt_accept: error: accept failed: Invalid argument??999999: mpt_accept: error: accept failed: Invalid argument??999999: mpt_accept: error: accept failed: Invalid argument??999999: mpt_accept: error: accept failed: Invalid argument??999999: mpt_accept: error: accept failed: Invalid argument??999999: mpt_accept: error: accept failed: Invalid argument??999999: mpt_accept: error: accept failed: Invalid argument??999999: mpt_accept: error: accept failed: Invalid argument??999999: mpt_accept: error: accept failed: Invalid argument??999999: mpt_accept: error: accept failed: Invalid argument??999999: mpt_accept: error: accept failed: Invalid argument??999999: mpt_accept: error: accept failed: 1: mpt_accept: error: accept failed: No such file or directoryInvalid argument???999999: mpt_accept: error: accept failed?: 1: mpt_accept: error: accept failed: No such file or directoryInvalid argument???999999: mpt_accept: error: accept failed?: Invalid argument?1: mpt_accept: error: accept failed: No such file or directory???999999: mpt_accept: error: accept failed1: mpt_accept: error: accept failed: No such file or directory?: Invalid argument???999999: mpt_accept: error: accept failed: Invalid argument??999999: mpt_accept: error: accept failed: Invalid argument??999999: mpt_accept: error: accept failed: Invalid argument??999999: mpt_accept: error: accept failed: Invalid argument??999999: mpt_accept: error: accept failed: Invalid argument??999999: mpt_accept: error: accept failed: Invalid argument??999999: mpt_accept: error: accept failed: Invalid argument??999999: mpt_accept: error: accept failed: Invalid argument??999999: mpt_accept: error: accept failed: Invalid argument??999999: mpt_accept: error: accept failed: Invalid argument??999999: mpt_accept: error: accept failed: Invalid argument??999999: mpt_accept: error: accept failed: Invalid argument??999999: mpt_accept: error: accept failed: Invalid argument??999999: mpt_accept: error: accept failed: Invalid argument??999999: mpt_accept: error: accept failed: Invalid argument??999999: mpt_accept: error: accept failed: Invalid argument??999999: mpt_accept: error: accept failed: Invalid argument??999999: mpt_accept: error: accept failed: Invalid argument??999999: mpt_accept: error: accept failed: Invalid argument??999999: mpt_accept: error: accept failed: Invalid argument??999999: mpt_accept: error: accept failed: Invalid argument??999999: mpt_accept: error: accept failed: Invalid argument??999999: mpt_accept: error: accept failed: Invalid argument??999999: mpt_accept: error: accept failed: Invalid argument??999999: mpt_accept: error: accept failed: Invalid argument??999999: mpt_accept: error: accept failed: Invalid argument??999999: mpt_accept: error: accept failed: Invalid argument??999999: mpt_accept: error: accept failed: Invalid argument??999999: mpt_accept: error: accept failed: Invalid argument??999999: mpt_accept: error: accept failed: Invalid argument??999999: mpt_accept: error: accept failed: Invalid argument??999999: mpt_accept: error: accept failed: Invalid argument??999999: mpt_accept: error: accept failed: Invalid argument??999999: mpt_accept: error: accept failed: Invalid argument??999999: mpt_accept: error: accept failed: Invalid argument??999999: mpt_accept: error: accept failed: Invalid argument??999999: mpt_accept: error: accept failed: Invalid argument??999999: mpt_accept: error: accept failed: Invalid argument??999999: mpt_accept: error: accept failed: Invalid argument??999999: mpt_accept: error: accept failed: Invalid argument??999999: mpt_accept: error: accept failed: Invalid argument??999999: mpt_accept: error: accept failed: Invalid argument??999999: mpt_accept: error: accept failed: Invalid argument??999999: mpt_accept: error: accept failed: Invalid argument??999999: mpt_accept: error: accept failed: Invalid argument??999999: mpt_accept: error: accept failed: Invalid argument??999999: mpt_accept: error: accept failed: Invalid argument??999999: mpt_accept: error: accept failed: Invalid argument??999999: mpt_accept: error: accept failed: Invalid argument??999999: mpt_accept: error: accept failed: Invalid argument??999999: mpt_accept: error: accept failed: Invalid argument??999999: mpt_accept: error: accept failed: Invalid argument??999999: mpt_accept: error: accept failed: Invalid argument??999999: mpt_accept: error: accept failed: Invalid argument??999999: mpt_accept: error: accept failed: Invalid argument??999999: mpt_accept: error: accept failed: Invalid argument??999999: mpt_accept: error: accept failed: Invalid argument??999999: mpt_accept: error: accept failed: Invalid argument??999999: mpt_accept: error: accept failed: Invalid argument??999999: mpt_accept: error: accept failed: Invalid argument??999999: mpt_accept: error: accept failed: Invalid argument??999999: mpt_accept: error: accept failed: Invalid argument??999999: mpt_accept: error: accept failed: Invalid argument??999999: mpt_accept: error: accept failed: Invalid argument??999999: mpt_accept: error: accept failed: Invalid argument??999999: mpt_accept: error: accept failed: Invalid argument??999999: mpt_accept: error: accept failed: Invalid argument??999999: mpt_accept: error: accept failed: Invalid argument??999999: mpt_accept: error: accept failed: Invalid argument??999999: mpt_accept: error: accept failed: Invalid argument??999999: mpt_accept: error: accept failed: Invalid argument??999999: mpt_accept: error: accept failed: Invalid argument??999999: mpt_accept: error: accept failed: Invalid argument??999999: mpt_accept: error: accept failed: Invalid argument??999999: mpt_accept: error: accept failed: Invalid argument??999999: mpt_accept: error: accept failed: Invalid argument??999999: mpt_accept: error: accept failed: Invalid argument??999999: mpt_accept: error: accept failed: Invalid argument??999999: mpt_accept: error: accept failed: Invalid argument??999999: mpt_accept: error: accept failed: Invalid argument??999999: mpt_accept: error: accept failed: Invalid argument??999999: mpt_accept: error: accept failed: Invalid argument??999999: mpt_accept: error: accept failed: Invalid argument??999999: mpt_accept: error: accept failed: Invalid argument??999999: mpt_accept: error: accept failed: Invalid argument??999999: mpt_accept: error: accept failed: Invalid argument??999999: mpt_accept: error: accept failed: Invalid argument??999999: mpt_accept: error: accept failed: Invalid argument??999999: mpt_accept: error: accept failed: Invalid argument??999999: mpt_accept: error: accept failed: Invalid argument??999999: mpt_accept: error: accept failed: Invalid argument??999999: mpt_accept: error: accept failed: Invalid argument??999999: mpt_accept: error: accept failed: Invalid argument??999999: mpt_accept: error: accept failed: Invalid argument??999999: mpt_accept: error: accept failed: Invalid argument??999999: mpt_accept: error: accept failed: Invalid argument??999999: mpt_accept: error: accept failed: Invalid argument??999999: mpt_accept: error: accept failed: Invalid argument??999999: mpt_accept: error: accept failed: Invalid argument??999999: mpt_accept: error: accept failed: Invalid argument??999999: mpt_accept: error: accept failed: Invalid argument??999999: mpt_accept: error: accept failed: Invalid argument??999999: mpt_accept: error: accept failed: Invalid argument??999999: mpt_accept: error: accept failed: Invalid argument??999999: mpt_accept: error: accept failed: Invalid argument??999999: mpt_accept: error: accept failed: Invalid argument??999999: mpt_accept: error: accept failed: Invalid argument??999999: mpt_accept: error: accept failed: Invalid argument??999999: mpt_accept: error: accept failed: Invalid argument??999999: mpt_accept: error: accept failed: Invalid argument??999999: mpt_accept: error: accept failed: Invalid argument??999999: mpt_accept: error: accept failed: Invalid argument??999999: mpt_accept: error: accept failed: Invalid argument??999999: mpt_accept: error: accept failed: Invalid argument??999999: mpt_accept: error: accept failed: Invalid argument??999999: mpt_accept: error: accept failed: Invalid argument??999999: mpt_accept: error: accept failed: Invalid argument??999999: mpt_accept: error: accept failed: Invalid argument??999999: mpt_accept: error: accept failed: Invalid argument??999999: mpt_accept: error: accept failed: Invalid argument??999999: mpt_accept: error: accept failed: Invalid argument??999999: mpt_accept: error: accept failed: Invalid argument??999999: mpt_accept: error: accept failed: Invalid argument??999999: mpt_accept: error: accept failed: Invalid argument??999999: mpt_accept: error: accept failed: Invalid argument??999999: mpt_accept: error: accept failed: Invalid argument??999999: mpt_accept: error: accept failed: Invalid argument??999999: mpt_accept: error: accept failed: Invalid argument??999999: mpt_accept: error: accept failed: Invalid argument??999999: mpt_accept: error: accept failed: Invalid argument??999999: mpt_accept: error: accept failed: Invalid argument??999999: mpt_accept: error: accept failed: Invalid argument??999999: mpt_accept: error: accept failed: Invalid argument??999999: mpt_accept: error: accept failed: Invalid argument??999999: mpt_accept: error: accept failed: Invalid argument??999999: mpt_accept: error: accept failed: Invalid argument??999999: mpt_accept: error: accept failed: Invalid argument??999999: mpt_accept: error: accept failed: Invalid argument??999999: mpt_accept: error: accept failed: Invalid argument??999999: mpt_accept: error: accept failed: Invalid argument??999999: mpt_accept: error: accept failed: Invalid argument??999999: mpt_accept: error: accept failed: Invalid argument??999999: mpt_accept: error: accept failed: Invalid argument??999999: mpt_accept: error: accept failed: Invalid argument??999999: mpt_accept: error: accept failed: Invalid argument??999999: mpt_accept: error: accept failed: Invalid argument??999999: mpt_accept: error: accept failed: Invalid argument??999999: mpt_accept: error: accept failed: Invalid argument??999999: mpt_accept: error: accept failed: Invalid argument??999999: mpt_accept: error: accept failed: Invalid argument??999999: mpt_accept: error: accept failed: Invalid argument??999999: mpt_accept: error: accept failed: Invalid argument??999999: mpt_accept: error: accept failed: Invalid argument??999999: mpt_accept: error: accept failed: MPI Application rank 0 exited before MPI_Finalize() with status 2?1: mpt_accept: error: accept failed: No such file or directory??1: mpt_accept: error: accept failed: No such file or directory??1: mpt_accept: error: accept failed: No such file or directory??1: mpt_accept: error: accept failed: No such file or directory??1: mpt_accept: error: accept failed: No such file or directory??1: mpt_accept: error: accept failed: No such file or directory??1: mpt_accept: error: accept failed: No such file or directory??1: mpt_accept: error: accept failed: No such file or directory??1: mpt_accept: error: accept failed: No such file or directory??1: mpt_accept: error: accept failed: No such file or directory??1: mpt_accept: error: accept failed: No such file or directory??1: mpt_accept: error: accept failed: No such file or directory??1: mpt_accept: error: accept failed: No such file or directory??1: mpt_accept: error: accept failed: No such file or directory??1: mpt_accept: error: accept failed: No such file or directory??1: mpt_accept: error: accept failed: No such file or directory??1: mpt_accept: error: accept failed: No such file or directory??1: mpt_accept: error: accept failed: No such file or directory??1: mpt_accept: error: accept failed: No such file or directory??1: mpt_accept: error: accept failed: No such file or directory??1: mpt_accept: error: accept failed: No such file or directory??1: mpt_accept: error: accept failed: No such file or directory??1: mpt_accept: error: accept failed: No such file or directory??1: mpt_accept: error: accept failed: No such file or directory??1: mpt_accept: error: accept failed: No such file or directory??1: mpt_accept: error: accept failed: No such file or directory??1: mpt_accept: error: accept failed: No such file or directory??1: mpt_accept: error: accept failed: No such file or directory??1: mpt_accept: error: accept failed: No such file or directory??1: mpt_accept: error: accept failed: No such file or directory??1: mpt_accept: error: accept failed: No such file or directory??1: mpt_accept: error: accept failed: No such file or directory??1: mpt_accept: error: accept failed: No such file or directory??1: mpt_accept: error: accept failed: No such file or directory??1: mpt_accept: error: accept failed: No such file or directory??1: mpt_accept: error: accept failed: No such file or directory??1: mpt_accept: error: accept failed: No such file or directory??1: mpt_accept: error: accept failed: No such file or directory??1: mpt_accept: error: accept failed: No such file or directory??1: mpt_accept: error: accept failed: No such file or directory??1: mpt_accept: error: accept failed: No such file or directory??1: mpt_accept: error: accept failed: No such file or directory??1: mpt_accept: error: accept failed: No such file or directory??1: mpt_accept: error: accept failed: No such file or directory??1: mpt_accept: error: accept failed: No such file or directory??1: mpt_accept: error: accept failed: No such file or directory??1: mpt_accept: error: accept failed: No such file or directory??1: mpt_accept: error: accept failed: No such file or directory??1: mpt_accept: error: accept failed: No such file or directory??1: mpt_accept: error: accept failed: No such file or directory??1: mpt_accept: error: accept failed: No such file or directory??1: mpt_accept: error: accept failed: No such file or directory??1: mpt_accept: error: accept failed: No such file or directory??1: mpt_accept: error: accept failed: No such file or directory??1: mpt_accept: error: accept failed: No such file or directory??1: mpt_accept: error: accept failed: No such file or directory??1: mpt_accept: error: accept failed: No such file or directory??1: mpt_accept: error: accept failed: No such file or directory??1: mpt_accept: error: accept failed: No such file or directory??1: mpt_accept: error: accept failed: No such file or directory??1: mpt_accept: error: accept failed: No such file or directory??1: mpt_accept: error: accept failed: No such file or directory??1: mpt_accept: error: accept failed: No such file or directory??1: mpt_accept: error: accept failed: No such file or directory??1: mpt_accept: error: accept failed: No such file or directory??1: mpt_accept: error: accept failed: No such file or directory?
